**
** ex03_display_fold.inp — Auto-generated by gen_ex03_inp.py
** 7-layer Display Panel: PET (J2) + PSA (Linear Viscoelastic)
** Hinge rotation driven via *RIGID BODY + *BOUNDARY
**
*HEADING
DISPLAY PANEL FOLDING ANALYSIS (ex03)
**
*NODE
0, -40.000000, 0.000000
1, -38.750000, 0.000000
2, -37.500000, 0.000000
3, -36.250000, 0.000000
4, -35.000000, 0.000000
5, -33.750000, 0.000000
6, -32.500000, 0.000000
7, -31.250000, 0.000000
8, -30.000000, 0.000000
9, -28.750000, 0.000000
10, -27.500000, 0.000000
11, -26.250000, 0.000000
12, -25.000000, 0.000000
13, -23.750000, 0.000000
14, -22.500000, 0.000000
15, -21.250000, 0.000000
16, -20.000000, 0.000000
17, -18.750000, 0.000000
18, -17.500000, 0.000000
19, -16.250000, 0.000000
** ... 790 like lines cut
**
*ELEMENT, TYPE=CPE4, ELSET=PET_0
0, 0, 1, 102, 101
1, 1, 2, 103, 102
2, 2, 3, 104, 103
3, 3, 4, 105, 104
4, 4, 5, 106, 105
5, 5, 6, 107, 106
6, 6, 7, 108, 107
7, 7, 8, 109, 108
8, 8, 9, 110, 109
9, 9, 10, 111, 110
10, 10, 11, 112, 111
11, 11, 12, 113, 112
12, 12, 13, 114, 113
13, 13, 14, 115, 114
14, 14, 15, 116, 115
15, 15, 16, 117, 116
16, 16, 17, 118, 117
17, 17, 18, 119, 118
18, 18, 19, 120, 119
19, 19, 20, 121, 120
** ... 80 like lines cut
**
*ELEMENT, TYPE=CPE4, ELSET=PSA_1
100, 101, 102, 203, 202
101, 102, 103, 204, 203
102, 103, 104, 205, 204
103, 104, 105, 206, 205
104, 105, 106, 207, 206
105, 106, 107, 208, 207
106, 107, 108, 209, 208
107, 108, 109, 210, 209
108, 109, 110, 211, 210
109, 110, 111, 212, 211
110, 111, 112, 213, 212
111, 112, 113, 214, 213
112, 113, 114, 215, 214
113, 114, 115, 216, 215
114, 115, 116, 217, 216
115, 116, 117, 218, 217
116, 117, 118, 219, 218
117, 118, 119, 220, 219
118, 119, 120, 221, 220
119, 120, 121, 222, 221
** ... 80 like lines cut
**
*ELEMENT, TYPE=CPE4, ELSET=PET_2
200, 202, 203, 304, 303
201, 203, 204, 305, 304
202, 204, 205, 306, 305
203, 205, 206, 307, 306
204, 206, 207, 308, 307
205, 207, 208, 309, 308
206, 208, 209, 310, 309
207, 209, 210, 311, 310
208, 210, 211, 312, 311
209, 211, 212, 313, 312
210, 212, 213, 314, 313
211, 213, 214, 315, 314
212, 214, 215, 316, 315
213, 215, 216, 317, 316
214, 216, 217, 318, 317
215, 217, 218, 319, 318
216, 218, 219, 320, 319
217, 219, 220, 321, 320
218, 220, 221, 322, 321
219, 221, 222, 323, 322
** ... 80 like lines cut
**
*ELEMENT, TYPE=CPE4, ELSET=PSA_3
300, 303, 304, 405, 404
301, 304, 305, 406, 405
302, 305, 306, 407, 406
303, 306, 307, 408, 407
304, 307, 308, 409, 408
305, 308, 309, 410, 409
306, 309, 310, 411, 410
307, 310, 311, 412, 411
308, 311, 312, 413, 412
309, 312, 313, 414, 413
310, 313, 314, 415, 414
311, 314, 315, 416, 415
312, 315, 316, 417, 416
313, 316, 317, 418, 417
314, 317, 318, 419, 418
315, 318, 319, 420, 419
316, 319, 320, 421, 420
317, 320, 321, 422, 421
318, 321, 322, 423, 422
319, 322, 323, 424, 423
** ... 80 like lines cut
**
*ELEMENT, TYPE=CPE4, ELSET=PET_4
400, 404, 405, 506, 505
401, 405, 406, 507, 506
402, 406, 407, 508, 507
403, 407, 408, 509, 508
404, 408, 409, 510, 509
405, 409, 410, 511, 510
406, 410, 411, 512, 511
407, 411, 412, 513, 512
408, 412, 413, 514, 513
409, 413, 414, 515, 514
410, 414, 415, 516, 515
411, 415, 416, 517, 516
412, 416, 417, 518, 517
413, 417, 418, 519, 518
414, 418, 419, 520, 519
415, 419, 420, 521, 520
416, 420, 421, 522, 521
417, 421, 422, 523, 522
418, 422, 423, 524, 523
419, 423, 424, 525, 524
** ... 80 like lines cut
**
*ELEMENT, TYPE=CPE4, ELSET=PSA_5
500, 505, 506, 607, 606
501, 506, 507, 608, 607
502, 507, 508, 609, 608
503, 508, 509, 610, 609
504, 509, 510, 611, 610
505, 510, 511, 612, 611
506, 511, 512, 613, 612
507, 512, 513, 614, 613
508, 513, 514, 615, 614
509, 514, 515, 616, 615
510, 515, 516, 617, 616
511, 516, 517, 618, 617
512, 517, 518, 619, 618
513, 518, 519, 620, 619
514, 519, 520, 621, 620
515, 520, 521, 622, 621
516, 521, 522, 623, 622
517, 522, 523, 624, 623
518, 523, 524, 625, 624
519, 524, 525, 626, 625
** ... 80 like lines cut
**
*ELEMENT, TYPE=CPE4, ELSET=PET_6
600, 606, 607, 708, 707
601, 607, 608, 709, 708
602, 608, 609, 710, 709
603, 609, 610, 711, 710
604, 610, 611, 712, 711
605, 611, 612, 713, 712
606, 612, 613, 714, 713
607, 613, 614, 715, 714
608, 614, 615, 716, 715
609, 615, 616, 717, 716
610, 616, 617, 718, 717
611, 617, 618, 719, 718
612, 618, 619, 720, 719
613, 619, 620, 721, 720
614, 620, 621, 722, 721
615, 621, 622, 723, 722
616, 622, 623, 724, 723
617, 623, 624, 725, 724
618, 624, 625, 726, 725
619, 625, 626, 727, 726
** ... 80 like lines cut
**
*MATERIAL, NAME=PET
*ELASTIC
4000.0, 0.3
*PLASTIC
80.0, 0.0
700.0, 1.0
**
*MATERIAL, NAME=PSA
*ELASTIC
10.0, 0.49
*VISCOELASTIC, TIME=PRONY
0.8, 0.0, 1.0
**
*SOLID SECTION, ELSET=PET_0, MATERIAL=PET
0.05,
*SOLID SECTION, ELSET=PSA_1, MATERIAL=PSA
0.05,
*SOLID SECTION, ELSET=PET_2, MATERIAL=PET
0.05,
*SOLID SECTION, ELSET=PSA_3, MATERIAL=PSA
0.05,
*SOLID SECTION, ELSET=PET_4, MATERIAL=PET
0.05,
*SOLID SECTION, ELSET=PSA_5, MATERIAL=PSA
0.05,
*SOLID SECTION, ELSET=PET_6, MATERIAL=PET
0.05,
**
*NSET, NSET=HINGE_L_SLAVES
0,
*NSET, NSET=HINGE_R_SLAVES
100,
**
*RIGID BODY, NSET=HINGE_L_SLAVES, REF NODE=99999
*RIGID BODY, NSET=HINGE_R_SLAVES, REF NODE=99998
**
*SURFACE, NAME=TOP_SURF, TYPE=NODE
10100, 10200
*SURFACE, NAME=BOT_SURF, TYPE=NODE
0, 100
*CONTACT PAIR, INTERACTION=FRICTIONLESS
TOP_SURF, BOT_SURF
**
*STEP, NLGEOM=YES
*STATIC
0.02, 1.0, 1e-5, 0.05
**
*BOUNDARY
99999, 1, 2, 0.0
*BOUNDARY
99998, 1, 2, 0.0
**
*END STEP