**
** ex12_rigid_plate_display_fold.inp
** 90-degree folding with rigid plate + surface tie (High-Fidelity Mesh)
**
*HEADING
Display folding with rigid plate and tie constraints
**
*NODE
1, -40.000000, 0.000000
2, -39.750000, 0.000000
3, -39.500000, 0.000000
4, -39.250000, 0.000000
5, -39.000000, 0.000000
6, -38.750000, 0.000000
7, -38.500000, 0.000000
8, -38.250000, 0.000000
9, -38.000000, 0.000000
10, -37.500000, 0.000000
11, -37.000000, 0.000000
12, -36.500000, 0.000000
13, -36.000000, 0.000000
14, -35.500000, 0.000000
15, -35.000000, 0.000000
16, -34.500000, 0.000000
17, -34.000000, 0.000000
18, -33.500000, 0.000000
19, -33.000000, 0.000000
20, -32.500000, 0.000000
** ... 6420 like lines cut
**
*ELEMENT, TYPE=CPE4, ELSET=DISP_LAYER01
1, 1, 2, 146, 145
2, 2, 3, 147, 146
3, 3, 4, 148, 147
4, 4, 5, 149, 148
5, 5, 6, 150, 149
6, 6, 7, 151, 150
7, 7, 8, 152, 151
8, 8, 9, 153, 152
9, 9, 10, 154, 153
10, 10, 11, 155, 154
11, 11, 12, 156, 155
12, 12, 13, 157, 156
13, 13, 14, 158, 157
14, 14, 15, 159, 158
15, 15, 16, 160, 159
16, 16, 17, 161, 160
17, 17, 18, 162, 161
18, 18, 19, 163, 162
19, 19, 20, 164, 163
20, 20, 21, 165, 164
** ... 122 like lines cut
*ELEMENT, TYPE=CPE4, ELSET=DISP_LAYER02
143, 145, 146, 349, 348
144, 146, 147, 350, 349
145, 147, 148, 351, 350
146, 148, 149, 352, 351
147, 149, 150, 353, 352
148, 150, 151, 354, 353
149, 151, 152, 355, 354
150, 152, 153, 356, 355
151, 153, 154, 357, 356
152, 154, 155, 358, 357
153, 155, 156, 359, 358
154, 156, 157, 360, 359
155, 157, 158, 361, 360
156, 158, 159, 362, 361
157, 159, 160, 363, 362
158, 160, 161, 364, 363
159, 161, 162, 365, 364
160, 162, 163, 366, 365
161, 163, 164, 367, 366
162, 164, 165, 368, 367
** ... 586 like lines cut
*ELEMENT, TYPE=CPE4, ELSET=DISP_LAYER03
749, 754, 755, 958, 957
750, 755, 756, 959, 958
751, 756, 757, 960, 959
752, 757, 758, 961, 960
753, 758, 759, 962, 961
754, 759, 760, 963, 962
755, 760, 761, 964, 963
756, 761, 762, 965, 964
757, 762, 763, 966, 965
758, 763, 764, 967, 966
759, 764, 765, 968, 967
760, 765, 766, 969, 968
761, 766, 767, 970, 969
762, 767, 768, 971, 970
763, 768, 769, 972, 971
764, 769, 770, 973, 972
765, 770, 771, 974, 973
766, 771, 772, 975, 974
767, 772, 773, 976, 975
768, 773, 774, 977, 976
** ... 182 like lines cut
*ELEMENT, TYPE=CPE4, ELSET=DISP_LAYER04
951, 957, 958, 1161, 1160
952, 958, 959, 1162, 1161
953, 959, 960, 1163, 1162
954, 960, 961, 1164, 1163
955, 961, 962, 1165, 1164
956, 962, 963, 1166, 1165
957, 963, 964, 1167, 1166
958, 964, 965, 1168, 1167
959, 965, 966, 1169, 1168
960, 966, 967, 1170, 1169
961, 967, 968, 1171, 1170
962, 968, 969, 1172, 1171
963, 969, 970, 1173, 1172
964, 970, 971, 1174, 1173
965, 971, 972, 1175, 1174
966, 972, 973, 1176, 1175
967, 973, 974, 1177, 1176
968, 974, 975, 1178, 1177
969, 975, 976, 1179, 1178
970, 976, 977, 1180, 1179
** ... 586 like lines cut
*ELEMENT, TYPE=CPE4, ELSET=DISP_LAYER05
1557, 1566, 1567, 1770, 1769
1558, 1567, 1568, 1771, 1770
1559, 1568, 1569, 1772, 1771
1560, 1569, 1570, 1773, 1772
1561, 1570, 1571, 1774, 1773
1562, 1571, 1572, 1775, 1774
1563, 1572, 1573, 1776, 1775
1564, 1573, 1574, 1777, 1776
1565, 1574, 1575, 1778, 1777
1566, 1575, 1576, 1779, 1778
1567, 1576, 1577, 1780, 1779
1568, 1577, 1578, 1781, 1780
1569, 1578, 1579, 1782, 1781
1570, 1579, 1580, 1783, 1782
1571, 1580, 1581, 1784, 1783
1572, 1581, 1582, 1785, 1784
1573, 1582, 1583, 1786, 1785
1574, 1583, 1584, 1787, 1786
1575, 1584, 1585, 1788, 1787
1576, 1585, 1586, 1789, 1788
** ... 182 like lines cut
*ELEMENT, TYPE=CPE4, ELSET=DISP_LAYER06
1759, 1769, 1770, 1973, 1972
1760, 1770, 1771, 1974, 1973
1761, 1771, 1772, 1975, 1974
1762, 1772, 1773, 1976, 1975
1763, 1773, 1774, 1977, 1976
1764, 1774, 1775, 1978, 1977
1765, 1775, 1776, 1979, 1978
1766, 1776, 1777, 1980, 1979
1767, 1777, 1778, 1981, 1980
1768, 1778, 1779, 1982, 1981
1769, 1779, 1780, 1983, 1982
1770, 1780, 1781, 1984, 1983
1771, 1781, 1782, 1985, 1984
1772, 1782, 1783, 1986, 1985
1773, 1783, 1784, 1987, 1986
1774, 1784, 1785, 1988, 1987
1775, 1785, 1786, 1989, 1988
1776, 1786, 1787, 1990, 1989
1777, 1787, 1788, 1991, 1990
1778, 1788, 1789, 1992, 1991
** ... 586 like lines cut
*ELEMENT, TYPE=CPE4, ELSET=DISP_LAYER07
2365, 2378, 2379, 2582, 2581
2366, 2379, 2380, 2583, 2582
2367, 2380, 2381, 2584, 2583
2368, 2381, 2382, 2585, 2584
2369, 2382, 2383, 2586, 2585
2370, 2383, 2384, 2587, 2586
2371, 2384, 2385, 2588, 2587
2372, 2385, 2386, 2589, 2588
2373, 2386, 2387, 2590, 2589
2374, 2387, 2388, 2591, 2590
2375, 2388, 2389, 2592, 2591
2376, 2389, 2390, 2593, 2592
2377, 2390, 2391, 2594, 2593
2378, 2391, 2392, 2595, 2594
2379, 2392, 2393, 2596, 2595
2380, 2393, 2394, 2597, 2596
2381, 2394, 2395, 2598, 2597
2382, 2395, 2396, 2599, 2598
2383, 2396, 2397, 2600, 2599
2384, 2397, 2398, 2601, 2600
** ... 182 like lines cut
*ELEMENT, TYPE=CPE4, ELSET=DISP_LAYER08
2567, 2581, 2582, 2785, 2784
2568, 2582, 2583, 2786, 2785
2569, 2583, 2584, 2787, 2786
2570, 2584, 2585, 2788, 2787
2571, 2585, 2586, 2789, 2788
2572, 2586, 2587, 2790, 2789
2573, 2587, 2588, 2791, 2790
2574, 2588, 2589, 2792, 2791
2575, 2589, 2590, 2793, 2792
2576, 2590, 2591, 2794, 2793
2577, 2591, 2592, 2795, 2794
2578, 2592, 2593, 2796, 2795
2579, 2593, 2594, 2797, 2796
2580, 2594, 2595, 2798, 2797
2581, 2595, 2596, 2799, 2798
2582, 2596, 2597, 2800, 2799
2583, 2597, 2598, 2801, 2800
2584, 2598, 2599, 2802, 2801
2585, 2599, 2600, 2803, 2802
2586, 2600, 2601, 2804, 2803
** ... 586 like lines cut
*ELEMENT, TYPE=CPE4, ELSET=DISP_LAYER09
3173, 3190, 3191, 3394, 3393
3174, 3191, 3192, 3395, 3394
3175, 3192, 3193, 3396, 3395
3176, 3193, 3194, 3397, 3396
3177, 3194, 3195, 3398, 3397
3178, 3195, 3196, 3399, 3398
3179, 3196, 3197, 3400, 3399
3180, 3197, 3198, 3401, 3400
3181, 3198, 3199, 3402, 3401
3182, 3199, 3200, 3403, 3402
3183, 3200, 3201, 3404, 3403
3184, 3201, 3202, 3405, 3404
3185, 3202, 3203, 3406, 3405
3186, 3203, 3204, 3407, 3406
3187, 3204, 3205, 3408, 3407
3188, 3205, 3206, 3409, 3408
3189, 3206, 3207, 3410, 3409
3190, 3207, 3208, 3411, 3410
3191, 3208, 3209, 3412, 3411
3192, 3209, 3210, 3413, 3412
** ... 182 like lines cut
*ELEMENT, TYPE=CPE4, ELSET=DISP_LAYER10
3375, 3393, 3394, 3597, 3596
3376, 3394, 3395, 3598, 3597
3377, 3395, 3396, 3599, 3598
3378, 3396, 3397, 3600, 3599
3379, 3397, 3398, 3601, 3600
3380, 3398, 3399, 3602, 3601
3381, 3399, 3400, 3603, 3602
3382, 3400, 3401, 3604, 3603
3383, 3401, 3402, 3605, 3604
3384, 3402, 3403, 3606, 3605
3385, 3403, 3404, 3607, 3606
3386, 3404, 3405, 3608, 3607
3387, 3405, 3406, 3609, 3608
3388, 3406, 3407, 3610, 3609
3389, 3407, 3408, 3611, 3610
3390, 3408, 3409, 3612, 3611
3391, 3409, 3410, 3613, 3612
3392, 3410, 3411, 3614, 3613
3393, 3411, 3412, 3615, 3614
3394, 3412, 3413, 3616, 3615
** ... 586 like lines cut
*ELEMENT, TYPE=CPE4, ELSET=DISP_LAYER11
3981, 4002, 4003, 4206, 4205
3982, 4003, 4004, 4207, 4206
3983, 4004, 4005, 4208, 4207
3984, 4005, 4006, 4209, 4208
3985, 4006, 4007, 4210, 4209
3986, 4007, 4008, 4211, 4210
3987, 4008, 4009, 4212, 4211
3988, 4009, 4010, 4213, 4212
3989, 4010, 4011, 4214, 4213
3990, 4011, 4012, 4215, 4214
3991, 4012, 4013, 4216, 4215
3992, 4013, 4014, 4217, 4216
3993, 4014, 4015, 4218, 4217
3994, 4015, 4016, 4219, 4218
3995, 4016, 4017, 4220, 4219
3996, 4017, 4018, 4221, 4220
3997, 4018, 4019, 4222, 4221
3998, 4019, 4020, 4223, 4222
3999, 4020, 4021, 4224, 4223
4000, 4021, 4022, 4225, 4224
** ... 182 like lines cut
*ELEMENT, TYPE=CPE4, ELSET=DISP_LAYER12
4183, 4205, 4206, 4409, 4408
4184, 4206, 4207, 4410, 4409
4185, 4207, 4208, 4411, 4410
4186, 4208, 4209, 4412, 4411
4187, 4209, 4210, 4413, 4412
4188, 4210, 4211, 4414, 4413
4189, 4211, 4212, 4415, 4414
4190, 4212, 4213, 4416, 4415
4191, 4213, 4214, 4417, 4416
4192, 4214, 4215, 4418, 4417
4193, 4215, 4216, 4419, 4418
4194, 4216, 4217, 4420, 4419
4195, 4217, 4218, 4421, 4420
4196, 4218, 4219, 4422, 4421
4197, 4219, 4220, 4423, 4422
4198, 4220, 4221, 4424, 4423
4199, 4221, 4222, 4425, 4424
4200, 4222, 4223, 4426, 4425
4201, 4223, 4224, 4427, 4426
4202, 4224, 4225, 4428, 4427
** ... 586 like lines cut
*ELEMENT, TYPE=CPE4, ELSET=DISP_LAYER13
4789, 4814, 4815, 5018, 5017
4790, 4815, 4816, 5019, 5018
4791, 4816, 4817, 5020, 5019
4792, 4817, 4818, 5021, 5020
4793, 4818, 4819, 5022, 5021
4794, 4819, 4820, 5023, 5022
4795, 4820, 4821, 5024, 5023
4796, 4821, 4822, 5025, 5024
4797, 4822, 4823, 5026, 5025
4798, 4823, 4824, 5027, 5026
4799, 4824, 4825, 5028, 5027
4800, 4825, 4826, 5029, 5028
4801, 4826, 4827, 5030, 5029
4802, 4827, 4828, 5031, 5030
4803, 4828, 4829, 5032, 5031
4804, 4829, 4830, 5033, 5032
4805, 4830, 4831, 5034, 5033
4806, 4831, 4832, 5035, 5034
4807, 4832, 4833, 5036, 5035
4808, 4833, 4834, 5037, 5036
** ... 182 like lines cut
*ELEMENT, TYPE=CPE4, ELSET=DISP_LAYER14
4991, 5017, 5018, 5221, 5220
4992, 5018, 5019, 5222, 5221
4993, 5019, 5020, 5223, 5222
4994, 5020, 5021, 5224, 5223
4995, 5021, 5022, 5225, 5224
4996, 5022, 5023, 5226, 5225
4997, 5023, 5024, 5227, 5226
4998, 5024, 5025, 5228, 5227
4999, 5025, 5026, 5229, 5228
5000, 5026, 5027, 5230, 5229
5001, 5027, 5028, 5231, 5230
5002, 5028, 5029, 5232, 5231
5003, 5029, 5030, 5233, 5232
5004, 5030, 5031, 5234, 5233
5005, 5031, 5032, 5235, 5234
5006, 5032, 5033, 5236, 5235
5007, 5033, 5034, 5237, 5236
5008, 5034, 5035, 5238, 5237
5009, 5035, 5036, 5239, 5238
5010, 5036, 5037, 5240, 5239
** ... 586 like lines cut
*ELEMENT, TYPE=CPE4, ELSET=PLATE_LEFT
100000, 100001, 100002, 100063, 100062
100001, 100002, 100003, 100064, 100063
100002, 100003, 100004, 100065, 100064
100003, 100004, 100005, 100066, 100065
100004, 100005, 100006, 100067, 100066
100005, 100006, 100007, 100068, 100067
100006, 100007, 100008, 100069, 100068
100007, 100008, 100009, 100070, 100069
100008, 100009, 100010, 100071, 100070
100009, 100010, 100011, 100072, 100071
100010, 100011, 100012, 100073, 100072
100011, 100012, 100013, 100074, 100073
100012, 100013, 100014, 100075, 100074
100013, 100014, 100015, 100076, 100075
100014, 100015, 100016, 100077, 100076
100015, 100016, 100017, 100078, 100077
100016, 100017, 100018, 100079, 100078
100017, 100018, 100019, 100080, 100079
100018, 100019, 100020, 100081, 100080
100019, 100020, 100021, 100082, 100081
** ... 220 like lines cut
*ELEMENT, TYPE=CPE4, ELSET=PLATE_RIGHT
100240, 100307, 100308, 100369, 100368
100241, 100308, 100309, 100370, 100369
100242, 100309, 100310, 100371, 100370
100243, 100310, 100311, 100372, 100371
100244, 100311, 100312, 100373, 100372
100245, 100312, 100313, 100374, 100373
100246, 100313, 100314, 100375, 100374
100247, 100314, 100315, 100376, 100375
100248, 100315, 100316, 100377, 100376
100249, 100316, 100317, 100378, 100377
100250, 100317, 100318, 100379, 100378
100251, 100318, 100319, 100380, 100379
100252, 100319, 100320, 100381, 100380
100253, 100320, 100321, 100382, 100381
100254, 100321, 100322, 100383, 100382
100255, 100322, 100323, 100384, 100383
100256, 100323, 100324, 100385, 100384
100257, 100324, 100325, 100386, 100385
100258, 100325, 100326, 100387, 100386
100259, 100326, 100327, 100388, 100387
** ... 220 like lines cut
**
*MATERIAL, NAME=PET
*ELASTIC
4000.0, 0.3
*PLASTIC
80.0, 0.0
480.0, 1.0
**
*MATERIAL, NAME=PSA
*HYPERELASTIC, ARRUDA-BOYCE
0.015614, 3.0, 2.4000096000384
*VISCOELASTIC, TIME=PRONY
0.12, 0.0, 0.7
0.08, 0.0, 7.0
*TRS, DEFINITION=WLF
25.0, 17.0, 51.6
**
*MATERIAL, NAME=STEEL
*ELASTIC
20000.0, 0.3
**
*MATERIAL, NAME=GLASS
*ELASTIC
70000.0, 0.22
*PLASTIC
1000000000.0, 0.0
1000000000.0, 1.0
**
*SOLID SECTION, ELSET=DISP_LAYER01, MATERIAL=PSA
1.0,
*SOLID SECTION, ELSET=DISP_LAYER02, MATERIAL=PET
1.0,
*SOLID SECTION, ELSET=DISP_LAYER03, MATERIAL=PSA
1.0,
*SOLID SECTION, ELSET=DISP_LAYER04, MATERIAL=PET
1.0,
*SOLID SECTION, ELSET=DISP_LAYER05, MATERIAL=PSA
1.0,
*SOLID SECTION, ELSET=DISP_LAYER06, MATERIAL=PET
1.0,
*SOLID SECTION, ELSET=DISP_LAYER07, MATERIAL=PSA
1.0,
*SOLID SECTION, ELSET=DISP_LAYER08, MATERIAL=PET
1.0,
*SOLID SECTION, ELSET=DISP_LAYER09, MATERIAL=PSA
1.0,
*SOLID SECTION, ELSET=DISP_LAYER10, MATERIAL=PET
1.0,
*SOLID SECTION, ELSET=DISP_LAYER11, MATERIAL=PSA
1.0,
*SOLID SECTION, ELSET=DISP_LAYER12, MATERIAL=PET
1.0,
*SOLID SECTION, ELSET=DISP_LAYER13, MATERIAL=PSA
1.0,
*SOLID SECTION, ELSET=DISP_LAYER14, MATERIAL=GLASS
1.0,
*SOLID SECTION, ELSET=PLATE_LEFT, MATERIAL=STEEL
1.0,
*SOLID SECTION, ELSET=PLATE_RIGHT, MATERIAL=STEEL
1.0,
**
*NSET, NSET=DISP_BOT_L_NODES
1, 2, 3, 4, 5, 6, 7, 8, 9, 10, 11, 12, 13, 14, 15, 16, 17, 18, 19, 20, 21, 22, 23, 24, 25, 26, 27, 28, 29, 30, 31, 32, 33, 34, 35, 36, 37, 38, 39, 40, 41, 42, 43, 44, 45, 46, 47, 48, 49, 50, 51, 52, 53, 54, 55, 56, 57, 58, 59, 60, 61
*SURFACE, NAME=DISPLAY_BOT_L, TYPE=NODE
DISP_BOT_L_NODES,
*NSET, NSET=DISP_BOT_R_NODES
84, 85, 86, 87, 88, 89, 90, 91, 92, 93, 94, 95, 96, 97, 98, 99, 100, 101, 102, 103, 104, 105, 106, 107, 108, 109, 110, 111, 112, 113, 114, 115, 116, 117, 118, 119, 120, 121, 122, 123, 124, 125, 126, 127, 128, 129, 130, 131, 132, 133, 134, 135, 136, 137, 138, 139, 140, 141, 142, 143, 144
*SURFACE, NAME=DISPLAY_BOT_R, TYPE=NODE
DISP_BOT_R_NODES,
*NSET, NSET=PLATE_L_TOP_NODES
100245, 100246, 100247, 100248, 100249, 100250, 100251, 100252, 100253, 100254, 100255, 100256, 100257, 100258, 100259, 100260, 100261, 100262, 100263, 100264, 100265, 100266, 100267, 100268, 100269, 100270, 100271, 100272, 100273, 100274, 100275, 100276, 100277, 100278, 100279, 100280, 100281, 100282, 100283, 100284, 100285, 100286, 100287, 100288, 100289, 100290, 100291, 100292, 100293, 100294, 
*SURFACE, NAME=PLATE_L_TOP, TYPE=NODE
PLATE_L_TOP_NODES,
*NSET, NSET=PLATE_R_TOP_NODES
100551, 100552, 100553, 100554, 100555, 100556, 100557, 100558, 100559, 100560, 100561, 100562, 100563, 100564, 100565, 100566, 100567, 100568, 100569, 100570, 100571, 100572, 100573, 100574, 100575, 100576, 100577, 100578, 100579, 100580, 100581, 100582, 100583, 100584, 100585, 100586, 100587, 100588, 100589, 100590, 100591, 100592, 100593, 100594, 100595, 100596, 100597, 100598, 100599, 100600, 
*SURFACE, NAME=PLATE_R_TOP, TYPE=NODE
PLATE_R_TOP_NODES,
*NSET, NSET=PLATE_L_SLAVES
100001, 100002, 100003, 100004, 100005, 100006, 100007, 100008, 100009, 100010, 100011, 100012, 100013, 100014, 100015, 100016, 100017, 100018, 100019, 100020, 100021, 100022, 100023, 100024, 100025, 100026, 100027, 100028, 100029, 100030, 100031, 100032, 100033, 100034, 100035, 100036, 100037, 100038, 100039, 100040, 100041, 100042, 100043, 100044, 100045, 100046, 100047, 100048, 100049, 100050, 
*NSET, NSET=PLATE_R_SLAVES
100307, 100308, 100309, 100310, 100311, 100312, 100313, 100314, 100315, 100316, 100317, 100318, 100319, 100320, 100321, 100322, 100323, 100324, 100325, 100326, 100327, 100328, 100329, 100330, 100331, 100332, 100333, 100334, 100335, 100336, 100337, 100338, 100339, 100340, 100341, 100342, 100343, 100344, 100345, 100346, 100347, 100348, 100349, 100350, 100351, 100352, 100353, 100354, 100355, 100356, 
**
*RIGID BODY, NSET=PLATE_L_SLAVES, REF NODE=100000
*RIGID BODY, NSET=PLATE_R_SLAVES, REF NODE=100306
*TIE, NAME=TIE_LEFT
DISPLAY_BOT_L, PLATE_L_TOP
*TIE, NAME=TIE_RIGHT
DISPLAY_BOT_R, PLATE_R_TOP
**
*STEP, NLGEOM=YES
*DYNAMIC, APPLICATION=MODERATE DISSIPATION, ALPHA=-0.2200
  0.005, 1.0, 1e-05, 0.01
**
*CONTROLS, PARAMETERS=TIME INCREMENTATION
  50, 16, 9, 20, 4, 10, 1.5, 0.25
**
*CONTROLS, PARAMETERS=FIELD
  0.01, 0.01, 0.0001, 1e-06
**
*SECTION CONTROLS, NAME=PSA_DISTORTION_CTRL, DISTORTION CONTROL=YES, LENGTH RATIO=0.20
**
*BOUNDARY
100000, 1, 2, 0.0
100306, 1, 2, 0.0
**
*BOUNDARY
100000, 6, 6, -1.570796
100306, 6, 6, 1.570796
**
*END STEP