**
** ex12_rigid_plate_display_fold.inp
** 90-degree folding with rigid plate + surface tie (High-Fidelity Mesh)
**
*HEADING
Display folding with rigid plate and tie constraints
**
*NODE
1, -40.000000, 0.000000
2, -39.750000, 0.000000
3, -39.500000, 0.000000
4, -39.250000, 0.000000
5, -39.000000, 0.000000
6, -38.750000, 0.000000
7, -38.500000, 0.000000
8, -38.250000, 0.000000
9, -38.000000, 0.000000
10, -37.000000, 0.000000
11, -36.000000, 0.000000
12, -35.000000, 0.000000
13, -34.000000, 0.000000
14, -33.000000, 0.000000
15, -32.000000, 0.000000
16, -31.000000, 0.000000
17, -30.000000, 0.000000
18, -29.000000, 0.000000
19, -28.000000, 0.000000
20, -27.000000, 0.000000
** ... 3677 like lines cut
**
*ELEMENT, TYPE=CPE4, ELSET=DISP_LAYER01
1, 1, 2, 123, 122
2, 2, 3, 124, 123
3, 3, 4, 125, 124
4, 4, 5, 126, 125
5, 5, 6, 127, 126
6, 6, 7, 128, 127
7, 7, 8, 129, 128
8, 8, 9, 130, 129
9, 9, 10, 131, 130
10, 10, 11, 132, 131
11, 11, 12, 133, 132
12, 12, 13, 134, 133
13, 13, 14, 135, 134
14, 14, 15, 136, 135
15, 15, 16, 137, 136
16, 16, 17, 138, 137
17, 17, 18, 139, 138
18, 18, 19, 140, 139
19, 19, 20, 141, 140
20, 20, 21, 142, 141
** ... 100 like lines cut
*ELEMENT, TYPE=CPE4, ELSET=DISP_LAYER02
121, 122, 123, 244, 243
122, 123, 124, 245, 244
123, 124, 125, 246, 245
124, 125, 126, 247, 246
125, 126, 127, 248, 247
126, 127, 128, 249, 248
127, 128, 129, 250, 249
128, 129, 130, 251, 250
129, 130, 131, 252, 251
130, 131, 132, 253, 252
131, 132, 133, 254, 253
132, 133, 134, 255, 254
133, 134, 135, 256, 255
134, 135, 136, 257, 256
135, 136, 137, 258, 257
136, 137, 138, 259, 258
137, 138, 139, 260, 259
138, 139, 140, 261, 260
139, 140, 141, 262, 261
140, 141, 142, 263, 262
** ... 340 like lines cut
*ELEMENT, TYPE=CPE4, ELSET=DISP_LAYER03
481, 485, 486, 607, 606
482, 486, 487, 608, 607
483, 487, 488, 609, 608
484, 488, 489, 610, 609
485, 489, 490, 611, 610
486, 490, 491, 612, 611
487, 491, 492, 613, 612
488, 492, 493, 614, 613
489, 493, 494, 615, 614
490, 494, 495, 616, 615
491, 495, 496, 617, 616
492, 496, 497, 618, 617
493, 497, 498, 619, 618
494, 498, 499, 620, 619
495, 499, 500, 621, 620
496, 500, 501, 622, 621
497, 501, 502, 623, 622
498, 502, 503, 624, 623
499, 503, 504, 625, 624
500, 504, 505, 626, 625
** ... 100 like lines cut
*ELEMENT, TYPE=CPE4, ELSET=DISP_LAYER04
601, 606, 607, 728, 727
602, 607, 608, 729, 728
603, 608, 609, 730, 729
604, 609, 610, 731, 730
605, 610, 611, 732, 731
606, 611, 612, 733, 732
607, 612, 613, 734, 733
608, 613, 614, 735, 734
609, 614, 615, 736, 735
610, 615, 616, 737, 736
611, 616, 617, 738, 737
612, 617, 618, 739, 738
613, 618, 619, 740, 739
614, 619, 620, 741, 740
615, 620, 621, 742, 741
616, 621, 622, 743, 742
617, 622, 623, 744, 743
618, 623, 624, 745, 744
619, 624, 625, 746, 745
620, 625, 626, 747, 746
** ... 340 like lines cut
*ELEMENT, TYPE=CPE4, ELSET=DISP_LAYER05
961, 969, 970, 1091, 1090
962, 970, 971, 1092, 1091
963, 971, 972, 1093, 1092
964, 972, 973, 1094, 1093
965, 973, 974, 1095, 1094
966, 974, 975, 1096, 1095
967, 975, 976, 1097, 1096
968, 976, 977, 1098, 1097
969, 977, 978, 1099, 1098
970, 978, 979, 1100, 1099
971, 979, 980, 1101, 1100
972, 980, 981, 1102, 1101
973, 981, 982, 1103, 1102
974, 982, 983, 1104, 1103
975, 983, 984, 1105, 1104
976, 984, 985, 1106, 1105
977, 985, 986, 1107, 1106
978, 986, 987, 1108, 1107
979, 987, 988, 1109, 1108
980, 988, 989, 1110, 1109
** ... 100 like lines cut
*ELEMENT, TYPE=CPE4, ELSET=DISP_LAYER06
1081, 1090, 1091, 1212, 1211
1082, 1091, 1092, 1213, 1212
1083, 1092, 1093, 1214, 1213
1084, 1093, 1094, 1215, 1214
1085, 1094, 1095, 1216, 1215
1086, 1095, 1096, 1217, 1216
1087, 1096, 1097, 1218, 1217
1088, 1097, 1098, 1219, 1218
1089, 1098, 1099, 1220, 1219
1090, 1099, 1100, 1221, 1220
1091, 1100, 1101, 1222, 1221
1092, 1101, 1102, 1223, 1222
1093, 1102, 1103, 1224, 1223
1094, 1103, 1104, 1225, 1224
1095, 1104, 1105, 1226, 1225
1096, 1105, 1106, 1227, 1226
1097, 1106, 1107, 1228, 1227
1098, 1107, 1108, 1229, 1228
1099, 1108, 1109, 1230, 1229
1100, 1109, 1110, 1231, 1230
** ... 340 like lines cut
*ELEMENT, TYPE=CPE4, ELSET=DISP_LAYER07
1441, 1453, 1454, 1575, 1574
1442, 1454, 1455, 1576, 1575
1443, 1455, 1456, 1577, 1576
1444, 1456, 1457, 1578, 1577
1445, 1457, 1458, 1579, 1578
1446, 1458, 1459, 1580, 1579
1447, 1459, 1460, 1581, 1580
1448, 1460, 1461, 1582, 1581
1449, 1461, 1462, 1583, 1582
1450, 1462, 1463, 1584, 1583
1451, 1463, 1464, 1585, 1584
1452, 1464, 1465, 1586, 1585
1453, 1465, 1466, 1587, 1586
1454, 1466, 1467, 1588, 1587
1455, 1467, 1468, 1589, 1588
1456, 1468, 1469, 1590, 1589
1457, 1469, 1470, 1591, 1590
1458, 1470, 1471, 1592, 1591
1459, 1471, 1472, 1593, 1592
1460, 1472, 1473, 1594, 1593
** ... 100 like lines cut
*ELEMENT, TYPE=CPE4, ELSET=DISP_LAYER08
1561, 1574, 1575, 1696, 1695
1562, 1575, 1576, 1697, 1696
1563, 1576, 1577, 1698, 1697
1564, 1577, 1578, 1699, 1698
1565, 1578, 1579, 1700, 1699
1566, 1579, 1580, 1701, 1700
1567, 1580, 1581, 1702, 1701
1568, 1581, 1582, 1703, 1702
1569, 1582, 1583, 1704, 1703
1570, 1583, 1584, 1705, 1704
1571, 1584, 1585, 1706, 1705
1572, 1585, 1586, 1707, 1706
1573, 1586, 1587, 1708, 1707
1574, 1587, 1588, 1709, 1708
1575, 1588, 1589, 1710, 1709
1576, 1589, 1590, 1711, 1710
1577, 1590, 1591, 1712, 1711
1578, 1591, 1592, 1713, 1712
1579, 1592, 1593, 1714, 1713
1580, 1593, 1594, 1715, 1714
** ... 340 like lines cut
*ELEMENT, TYPE=CPE4, ELSET=DISP_LAYER09
1921, 1937, 1938, 2059, 2058
1922, 1938, 1939, 2060, 2059
1923, 1939, 1940, 2061, 2060
1924, 1940, 1941, 2062, 2061
1925, 1941, 1942, 2063, 2062
1926, 1942, 1943, 2064, 2063
1927, 1943, 1944, 2065, 2064
1928, 1944, 1945, 2066, 2065
1929, 1945, 1946, 2067, 2066
1930, 1946, 1947, 2068, 2067
1931, 1947, 1948, 2069, 2068
1932, 1948, 1949, 2070, 2069
1933, 1949, 1950, 2071, 2070
1934, 1950, 1951, 2072, 2071
1935, 1951, 1952, 2073, 2072
1936, 1952, 1953, 2074, 2073
1937, 1953, 1954, 2075, 2074
1938, 1954, 1955, 2076, 2075
1939, 1955, 1956, 2077, 2076
1940, 1956, 1957, 2078, 2077
** ... 100 like lines cut
*ELEMENT, TYPE=CPE4, ELSET=DISP_LAYER10
2041, 2058, 2059, 2180, 2179
2042, 2059, 2060, 2181, 2180
2043, 2060, 2061, 2182, 2181
2044, 2061, 2062, 2183, 2182
2045, 2062, 2063, 2184, 2183
2046, 2063, 2064, 2185, 2184
2047, 2064, 2065, 2186, 2185
2048, 2065, 2066, 2187, 2186
2049, 2066, 2067, 2188, 2187
2050, 2067, 2068, 2189, 2188
2051, 2068, 2069, 2190, 2189
2052, 2069, 2070, 2191, 2190
2053, 2070, 2071, 2192, 2191
2054, 2071, 2072, 2193, 2192
2055, 2072, 2073, 2194, 2193
2056, 2073, 2074, 2195, 2194
2057, 2074, 2075, 2196, 2195
2058, 2075, 2076, 2197, 2196
2059, 2076, 2077, 2198, 2197
2060, 2077, 2078, 2199, 2198
** ... 340 like lines cut
*ELEMENT, TYPE=CPE4, ELSET=DISP_LAYER11
2401, 2421, 2422, 2543, 2542
2402, 2422, 2423, 2544, 2543
2403, 2423, 2424, 2545, 2544
2404, 2424, 2425, 2546, 2545
2405, 2425, 2426, 2547, 2546
2406, 2426, 2427, 2548, 2547
2407, 2427, 2428, 2549, 2548
2408, 2428, 2429, 2550, 2549
2409, 2429, 2430, 2551, 2550
2410, 2430, 2431, 2552, 2551
2411, 2431, 2432, 2553, 2552
2412, 2432, 2433, 2554, 2553
2413, 2433, 2434, 2555, 2554
2414, 2434, 2435, 2556, 2555
2415, 2435, 2436, 2557, 2556
2416, 2436, 2437, 2558, 2557
2417, 2437, 2438, 2559, 2558
2418, 2438, 2439, 2560, 2559
2419, 2439, 2440, 2561, 2560
2420, 2440, 2441, 2562, 2561
** ... 100 like lines cut
*ELEMENT, TYPE=CPE4, ELSET=DISP_LAYER12
2521, 2542, 2543, 2664, 2663
2522, 2543, 2544, 2665, 2664
2523, 2544, 2545, 2666, 2665
2524, 2545, 2546, 2667, 2666
2525, 2546, 2547, 2668, 2667
2526, 2547, 2548, 2669, 2668
2527, 2548, 2549, 2670, 2669
2528, 2549, 2550, 2671, 2670
2529, 2550, 2551, 2672, 2671
2530, 2551, 2552, 2673, 2672
2531, 2552, 2553, 2674, 2673
2532, 2553, 2554, 2675, 2674
2533, 2554, 2555, 2676, 2675
2534, 2555, 2556, 2677, 2676
2535, 2556, 2557, 2678, 2677
2536, 2557, 2558, 2679, 2678
2537, 2558, 2559, 2680, 2679
2538, 2559, 2560, 2681, 2680
2539, 2560, 2561, 2682, 2681
2540, 2561, 2562, 2683, 2682
** ... 340 like lines cut
*ELEMENT, TYPE=CPE4, ELSET=DISP_LAYER13
2881, 2905, 2906, 3027, 3026
2882, 2906, 2907, 3028, 3027
2883, 2907, 2908, 3029, 3028
2884, 2908, 2909, 3030, 3029
2885, 2909, 2910, 3031, 3030
2886, 2910, 2911, 3032, 3031
2887, 2911, 2912, 3033, 3032
2888, 2912, 2913, 3034, 3033
2889, 2913, 2914, 3035, 3034
2890, 2914, 2915, 3036, 3035
2891, 2915, 2916, 3037, 3036
2892, 2916, 2917, 3038, 3037
2893, 2917, 2918, 3039, 3038
2894, 2918, 2919, 3040, 3039
2895, 2919, 2920, 3041, 3040
2896, 2920, 2921, 3042, 3041
2897, 2921, 2922, 3043, 3042
2898, 2922, 2923, 3044, 3043
2899, 2923, 2924, 3045, 3044
2900, 2924, 2925, 3046, 3045
** ... 100 like lines cut
*ELEMENT, TYPE=CPE4, ELSET=DISP_LAYER14
3001, 3026, 3027, 3148, 3147
3002, 3027, 3028, 3149, 3148
3003, 3028, 3029, 3150, 3149
3004, 3029, 3030, 3151, 3150
3005, 3030, 3031, 3152, 3151
3006, 3031, 3032, 3153, 3152
3007, 3032, 3033, 3154, 3153
3008, 3033, 3034, 3155, 3154
3009, 3034, 3035, 3156, 3155
3010, 3035, 3036, 3157, 3156
3011, 3036, 3037, 3158, 3157
3012, 3037, 3038, 3159, 3158
3013, 3038, 3039, 3160, 3159
3014, 3039, 3040, 3161, 3160
3015, 3040, 3041, 3162, 3161
3016, 3041, 3042, 3163, 3162
3017, 3042, 3043, 3164, 3163
3018, 3043, 3044, 3165, 3164
3019, 3044, 3045, 3166, 3165
3020, 3045, 3046, 3167, 3166
** ... 340 like lines cut
*ELEMENT, TYPE=CPE4, ELSET=PLATE_LEFT
10000, 10001, 10002, 10033, 10032
10001, 10002, 10003, 10034, 10033
10002, 10003, 10004, 10035, 10034
10003, 10004, 10005, 10036, 10035
10004, 10005, 10006, 10037, 10036
10005, 10006, 10007, 10038, 10037
10006, 10007, 10008, 10039, 10038
10007, 10008, 10009, 10040, 10039
10008, 10009, 10010, 10041, 10040
10009, 10010, 10011, 10042, 10041
10010, 10011, 10012, 10043, 10042
10011, 10012, 10013, 10044, 10043
10012, 10013, 10014, 10045, 10044
10013, 10014, 10015, 10046, 10045
10014, 10015, 10016, 10047, 10046
10015, 10016, 10017, 10048, 10047
10016, 10017, 10018, 10049, 10048
10017, 10018, 10019, 10050, 10049
10018, 10019, 10020, 10051, 10050
10019, 10020, 10021, 10052, 10051
** ... 40 like lines cut
*ELEMENT, TYPE=CPE4, ELSET=PLATE_RIGHT
10060, 10095, 10096, 10127, 10126
10061, 10096, 10097, 10128, 10127
10062, 10097, 10098, 10129, 10128
10063, 10098, 10099, 10130, 10129
10064, 10099, 10100, 10131, 10130
10065, 10100, 10101, 10132, 10131
10066, 10101, 10102, 10133, 10132
10067, 10102, 10103, 10134, 10133
10068, 10103, 10104, 10135, 10134
10069, 10104, 10105, 10136, 10135
10070, 10105, 10106, 10137, 10136
10071, 10106, 10107, 10138, 10137
10072, 10107, 10108, 10139, 10138
10073, 10108, 10109, 10140, 10139
10074, 10109, 10110, 10141, 10140
10075, 10110, 10111, 10142, 10141
10076, 10111, 10112, 10143, 10142
10077, 10112, 10113, 10144, 10143
10078, 10113, 10114, 10145, 10144
10079, 10114, 10115, 10146, 10145
** ... 40 like lines cut
**
*MATERIAL, NAME=PET
*ELASTIC
4000.0, 0.3
*PLASTIC
80.0, 0.0
480.0, 1.0
**
*MATERIAL, NAME=PSA
*HYPERELASTIC, ARRUDA-BOYCE
0.016779, 3.0, 2.4000096000384
*VISCOELASTIC, TIME=PRONY
0.2, 0.0, 3.33
*TRS, DEFINITION=WLF
25.0, 17.0, 51.6
**
*MATERIAL, NAME=STEEL
*ELASTIC
20000.0, 0.3
**
*SOLID SECTION, ELSET=DISP_LAYER01, MATERIAL=PSA
1.0,
*SOLID SECTION, ELSET=DISP_LAYER02, MATERIAL=PET
1.0,
*SOLID SECTION, ELSET=DISP_LAYER03, MATERIAL=PSA
1.0,
*SOLID SECTION, ELSET=DISP_LAYER04, MATERIAL=PET
1.0,
*SOLID SECTION, ELSET=DISP_LAYER05, MATERIAL=PSA
1.0,
*SOLID SECTION, ELSET=DISP_LAYER06, MATERIAL=PET
1.0,
*SOLID SECTION, ELSET=DISP_LAYER07, MATERIAL=PSA
1.0,
*SOLID SECTION, ELSET=DISP_LAYER08, MATERIAL=PET
1.0,
*SOLID SECTION, ELSET=DISP_LAYER09, MATERIAL=PSA
1.0,
*SOLID SECTION, ELSET=DISP_LAYER10, MATERIAL=PET
1.0,
*SOLID SECTION, ELSET=DISP_LAYER11, MATERIAL=PSA
1.0,
*SOLID SECTION, ELSET=DISP_LAYER12, MATERIAL=PET
1.0,
*SOLID SECTION, ELSET=DISP_LAYER13, MATERIAL=PSA
1.0,
*SOLID SECTION, ELSET=DISP_LAYER14, MATERIAL=PET
1.0,
*SOLID SECTION, ELSET=PLATE_LEFT, MATERIAL=STEEL
1.0,
*SOLID SECTION, ELSET=PLATE_RIGHT, MATERIAL=STEEL
1.0,
**
*NSET, NSET=DISP_BOT_L_NODES
1, 2, 3, 4, 5, 6, 7, 8, 9, 10, 11, 12, 13, 14, 15, 16, 17, 18, 19, 20, 21, 22, 23, 24, 25, 26, 27, 28, 29, 30, 31, 32, 33, 34, 35, 36, 37
*SURFACE, NAME=DISPLAY_BOT_L, TYPE=NODE
DISP_BOT_L_NODES,
*NSET, NSET=DISP_BOT_R_NODES
85, 86, 87, 88, 89, 90, 91, 92, 93, 94, 95, 96, 97, 98, 99, 100, 101, 102, 103, 104, 105, 106, 107, 108, 109, 110, 111, 112, 113, 114, 115, 116, 117, 118, 119, 120, 121
*SURFACE, NAME=DISPLAY_BOT_R, TYPE=NODE
DISP_BOT_R_NODES,
*NSET, NSET=PLATE_L_TOP_NODES
10063, 10064, 10065, 10066, 10067, 10068, 10069, 10070, 10071, 10072, 10073, 10074, 10075, 10076, 10077, 10078, 10079, 10080, 10081, 10082, 10083, 10084, 10085, 10086, 10087, 10088, 10089, 10090, 10091, 10092, 10093
*SURFACE, NAME=PLATE_L_TOP, TYPE=NODE
PLATE_L_TOP_NODES,
*NSET, NSET=PLATE_R_TOP_NODES
10157, 10158, 10159, 10160, 10161, 10162, 10163, 10164, 10165, 10166, 10167, 10168, 10169, 10170, 10171, 10172, 10173, 10174, 10175, 10176, 10177, 10178, 10179, 10180, 10181, 10182, 10183, 10184, 10185, 10186, 10187
*SURFACE, NAME=PLATE_R_TOP, TYPE=NODE
PLATE_R_TOP_NODES,
*NSET, NSET=PLATE_L_SLAVES
10001, 10002, 10003, 10004, 10005, 10006, 10007, 10008, 10009, 10010, 10011, 10012, 10013, 10014, 10015, 10016, 10017, 10018, 10019, 10020, 10021, 10022, 10023, 10024, 10025, 10026, 10027, 10028, 10029, 10030, 10031, 10032, 10033, 10034, 10035, 10036, 10037, 10038, 10039, 10040, 10041, 10042, 10043, 10044, 10045, 10046, 10047, 10048, 10049, 10050, 10051, 10052, 10053, 10054, 10055, 10056, 10057, 1
*NSET, NSET=PLATE_R_SLAVES
10095, 10096, 10097, 10098, 10099, 10100, 10101, 10102, 10103, 10104, 10105, 10106, 10107, 10108, 10109, 10110, 10111, 10112, 10113, 10114, 10115, 10116, 10117, 10118, 10119, 10120, 10121, 10122, 10123, 10124, 10125, 10126, 10127, 10128, 10129, 10130, 10131, 10132, 10133, 10134, 10135, 10136, 10137, 10138, 10139, 10140, 10141, 10142, 10143, 10144, 10145, 10146, 10147, 10148, 10149, 10150, 10151, 1
**
*RIGID BODY, NSET=PLATE_L_SLAVES, REF NODE=10000
*RIGID BODY, NSET=PLATE_R_SLAVES, REF NODE=10094
*TIE, NAME=TIE_LEFT
DISPLAY_BOT_L, PLATE_L_TOP
*TIE, NAME=TIE_RIGHT
DISPLAY_BOT_R, PLATE_R_TOP
**
*STEP
*STATIC
0.005, 1.0, 1e-05, 0.1
**
*BOUNDARY
10000, 1, 2, 0.0
10094, 1, 2, 0.0
**
*BOUNDARY
10000, 6, 6, -1.570796
10094, 6, 6, 1.570796
**
*END STEP