**
** ex12_rigid_plate_display_fold.inp
** 90-degree folding with rigid plate + surface tie (High-Fidelity Mesh)
**
*HEADING
Display folding with rigid plate and tie constraints
**
*NODE
1, -40.000000, 0.000000
2, -39.750000, 0.000000
3, -39.500000, 0.000000
4, -39.250000, 0.000000
5, -39.000000, 0.000000
6, -38.750000, 0.000000
7, -38.500000, 0.000000
8, -38.250000, 0.000000
9, -38.000000, 0.000000
10, -37.000000, 0.000000
11, -36.000000, 0.000000
12, -35.000000, 0.000000
13, -34.000000, 0.000000
14, -33.000000, 0.000000
15, -32.000000, 0.000000
16, -31.000000, 0.000000
17, -30.000000, 0.000000
18, -29.000000, 0.000000
19, -28.000000, 0.000000
20, -27.000000, 0.000000
** ... 773 like lines cut
**
*ELEMENT, TYPE=CPE4, ELSET=DISPLAY
1, 1, 2, 123, 122
2, 2, 3, 124, 123
3, 3, 4, 125, 124
4, 4, 5, 126, 125
5, 5, 6, 127, 126
6, 6, 7, 128, 127
7, 7, 8, 129, 128
8, 8, 9, 130, 129
9, 9, 10, 131, 130
10, 10, 11, 132, 131
11, 11, 12, 133, 132
12, 12, 13, 134, 133
13, 13, 14, 135, 134
14, 14, 15, 136, 135
15, 15, 16, 137, 136
16, 16, 17, 138, 137
17, 17, 18, 139, 138
18, 18, 19, 140, 139
19, 19, 20, 141, 140
20, 20, 21, 142, 141
** ... 460 like lines cut
*ELEMENT, TYPE=CPE4, ELSET=PLATE_LEFT
10000, 10001, 10002, 10033, 10032
10001, 10002, 10003, 10034, 10033
10002, 10003, 10004, 10035, 10034
10003, 10004, 10005, 10036, 10035
10004, 10005, 10006, 10037, 10036
10005, 10006, 10007, 10038, 10037
10006, 10007, 10008, 10039, 10038
10007, 10008, 10009, 10040, 10039
10008, 10009, 10010, 10041, 10040
10009, 10010, 10011, 10042, 10041
10010, 10011, 10012, 10043, 10042
10011, 10012, 10013, 10044, 10043
10012, 10013, 10014, 10045, 10044
10013, 10014, 10015, 10046, 10045
10014, 10015, 10016, 10047, 10046
10015, 10016, 10017, 10048, 10047
10016, 10017, 10018, 10049, 10048
10017, 10018, 10019, 10050, 10049
10018, 10019, 10020, 10051, 10050
10019, 10020, 10021, 10052, 10051
** ... 40 like lines cut
*ELEMENT, TYPE=CPE4, ELSET=PLATE_RIGHT
10060, 10095, 10096, 10127, 10126
10061, 10096, 10097, 10128, 10127
10062, 10097, 10098, 10129, 10128
10063, 10098, 10099, 10130, 10129
10064, 10099, 10100, 10131, 10130
10065, 10100, 10101, 10132, 10131
10066, 10101, 10102, 10133, 10132
10067, 10102, 10103, 10134, 10133
10068, 10103, 10104, 10135, 10134
10069, 10104, 10105, 10136, 10135
10070, 10105, 10106, 10137, 10136
10071, 10106, 10107, 10138, 10137
10072, 10107, 10108, 10139, 10138
10073, 10108, 10109, 10140, 10139
10074, 10109, 10110, 10141, 10140
10075, 10110, 10111, 10142, 10141
10076, 10111, 10112, 10143, 10142
10077, 10112, 10113, 10144, 10143
10078, 10113, 10114, 10145, 10144
10079, 10114, 10115, 10146, 10145
** ... 40 like lines cut
**
*MATERIAL, NAME=PET
*ELASTIC
4000.0, 0.3
*PLASTIC
80.0, 0.0
480.0, 1.0
**
*MATERIAL, NAME=STEEL
*ELASTIC
20000.0, 0.3
**
*SOLID SECTION, ELSET=DISPLAY, MATERIAL=PET
1.0,
*SOLID SECTION, ELSET=PLATE_LEFT, MATERIAL=STEEL
1.0,
*SOLID SECTION, ELSET=PLATE_RIGHT, MATERIAL=STEEL
1.0,
**
*NSET, NSET=DISP_BOT_L_NODES
1, 2, 3, 4, 5, 6, 7, 8, 9, 10, 11, 12, 13, 14, 15, 16, 17, 18, 19, 20, 21, 22, 23, 24, 25, 26, 27, 28, 29, 30, 31, 32, 33, 34, 35, 36, 37
*SURFACE, NAME=DISPLAY_BOT_L, TYPE=NODE
DISP_BOT_L_NODES,
*NSET, NSET=DISP_BOT_R_NODES
85, 86, 87, 88, 89, 90, 91, 92, 93, 94, 95, 96, 97, 98, 99, 100, 101, 102, 103, 104, 105, 106, 107, 108, 109, 110, 111, 112, 113, 114, 115, 116, 117, 118, 119, 120, 121
*SURFACE, NAME=DISPLAY_BOT_R, TYPE=NODE
DISP_BOT_R_NODES,
*NSET, NSET=PLATE_L_TOP_NODES
10063, 10064, 10065, 10066, 10067, 10068, 10069, 10070, 10071, 10072, 10073, 10074, 10075, 10076, 10077, 10078, 10079, 10080, 10081, 10082, 10083, 10084, 10085, 10086, 10087, 10088, 10089, 10090, 10091, 10092, 10093
*SURFACE, NAME=PLATE_L_TOP, TYPE=NODE
PLATE_L_TOP_NODES,
*NSET, NSET=PLATE_R_TOP_NODES
10157, 10158, 10159, 10160, 10161, 10162, 10163, 10164, 10165, 10166, 10167, 10168, 10169, 10170, 10171, 10172, 10173, 10174, 10175, 10176, 10177, 10178, 10179, 10180, 10181, 10182, 10183, 10184, 10185, 10186, 10187
*SURFACE, NAME=PLATE_R_TOP, TYPE=NODE
PLATE_R_TOP_NODES,
*NSET, NSET=PLATE_L_SLAVES
10001, 10002, 10003, 10004, 10005, 10006, 10007, 10008, 10009, 10010, 10011, 10012, 10013, 10014, 10015, 10016, 10017, 10018, 10019, 10020, 10021, 10022, 10023, 10024, 10025, 10026, 10027, 10028, 10029, 10030, 10031, 10032, 10033, 10034, 10035, 10036, 10037, 10038, 10039, 10040, 10041, 10042, 10043, 10044, 10045, 10046, 10047, 10048, 10049, 10050, 10051, 10052, 10053, 10054, 10055, 10056, 10057, 1
*NSET, NSET=PLATE_R_SLAVES
10095, 10096, 10097, 10098, 10099, 10100, 10101, 10102, 10103, 10104, 10105, 10106, 10107, 10108, 10109, 10110, 10111, 10112, 10113, 10114, 10115, 10116, 10117, 10118, 10119, 10120, 10121, 10122, 10123, 10124, 10125, 10126, 10127, 10128, 10129, 10130, 10131, 10132, 10133, 10134, 10135, 10136, 10137, 10138, 10139, 10140, 10141, 10142, 10143, 10144, 10145, 10146, 10147, 10148, 10149, 10150, 10151, 1
**
*RIGID BODY, NSET=PLATE_L_SLAVES, REF NODE=10000
*RIGID BODY, NSET=PLATE_R_SLAVES, REF NODE=10094
*TIE, NAME=TIE_LEFT
DISPLAY_BOT_L, PLATE_L_TOP
*TIE, NAME=TIE_RIGHT
DISPLAY_BOT_R, PLATE_R_TOP
**
*STEP
*STATIC
0.005, 1.0, 1e-5, 0.01
**
*BOUNDARY
10000, 1, 2, 0.0
10094, 1, 2, 0.0
**
*BOUNDARY
10000, 6, 6, -1.570796
10094, 6, 6, 1.570796
**
*END STEP