**
** ex12_rigid_plate_display_fold.inp
** 90-degree folding with rigid plate + surface tie (High-Fidelity Mesh)
**
*HEADING
Display folding with rigid plate and tie constraints
**
*NODE
1, -40.000000, 0.000000
2, -39.875000, 0.000000
3, -39.750000, 0.000000
4, -39.625000, 0.000000
5, -39.500000, 0.000000
6, -39.375000, 0.000000
7, -39.250000, 0.000000
8, -39.125000, 0.000000
9, -39.000000, 0.000000
10, -38.875000, 0.000000
11, -38.750000, 0.000000
12, -38.625000, 0.000000
13, -38.500000, 0.000000
14, -38.375000, 0.000000
15, -38.250000, 0.000000
16, -38.125000, 0.000000
17, -38.000000, 0.000000
18, -37.500000, 0.000000
19, -37.000000, 0.000000
20, -36.500000, 0.000000
** ... 3481 like lines cut
**
*ELEMENT, TYPE=CPE4, ELSET=DISP_LAYER01
1, 1, 2, 243, 242
2, 2, 3, 244, 243
3, 3, 4, 245, 244
4, 4, 5, 246, 245
5, 5, 6, 247, 246
6, 6, 7, 248, 247
7, 7, 8, 249, 248
8, 8, 9, 250, 249
9, 9, 10, 251, 250
10, 10, 11, 252, 251
11, 11, 12, 253, 252
12, 12, 13, 254, 253
13, 13, 14, 255, 254
14, 14, 15, 256, 255
15, 15, 16, 257, 256
16, 16, 17, 258, 257
17, 17, 18, 259, 258
18, 18, 19, 260, 259
19, 19, 20, 261, 260
20, 20, 21, 262, 261
** ... 220 like lines cut
*ELEMENT, TYPE=CPE4, ELSET=DISP_LAYER02
241, 242, 243, 484, 483
242, 243, 244, 485, 484
243, 244, 245, 486, 485
244, 245, 246, 487, 486
245, 246, 247, 488, 487
246, 247, 248, 489, 488
247, 248, 249, 490, 489
248, 249, 250, 491, 490
249, 250, 251, 492, 491
250, 251, 252, 493, 492
251, 252, 253, 494, 493
252, 253, 254, 495, 494
253, 254, 255, 496, 495
254, 255, 256, 497, 496
255, 256, 257, 498, 497
256, 257, 258, 499, 498
257, 258, 259, 500, 499
258, 259, 260, 501, 500
259, 260, 261, 502, 501
260, 261, 262, 503, 502
** ... 700 like lines cut
*ELEMENT, TYPE=CPE4, ELSET=DISP_LAYER03
961, 965, 966, 1207, 1206
962, 966, 967, 1208, 1207
963, 967, 968, 1209, 1208
964, 968, 969, 1210, 1209
965, 969, 970, 1211, 1210
966, 970, 971, 1212, 1211
967, 971, 972, 1213, 1212
968, 972, 973, 1214, 1213
969, 973, 974, 1215, 1214
970, 974, 975, 1216, 1215
971, 975, 976, 1217, 1216
972, 976, 977, 1218, 1217
973, 977, 978, 1219, 1218
974, 978, 979, 1220, 1219
975, 979, 980, 1221, 1220
976, 980, 981, 1222, 1221
977, 981, 982, 1223, 1222
978, 982, 983, 1224, 1223
979, 983, 984, 1225, 1224
980, 984, 985, 1226, 1225
** ... 220 like lines cut
*ELEMENT, TYPE=CPE4, ELSET=DISP_LAYER04
1201, 1206, 1207, 1448, 1447
1202, 1207, 1208, 1449, 1448
1203, 1208, 1209, 1450, 1449
1204, 1209, 1210, 1451, 1450
1205, 1210, 1211, 1452, 1451
1206, 1211, 1212, 1453, 1452
1207, 1212, 1213, 1454, 1453
1208, 1213, 1214, 1455, 1454
1209, 1214, 1215, 1456, 1455
1210, 1215, 1216, 1457, 1456
1211, 1216, 1217, 1458, 1457
1212, 1217, 1218, 1459, 1458
1213, 1218, 1219, 1460, 1459
1214, 1219, 1220, 1461, 1460
1215, 1220, 1221, 1462, 1461
1216, 1221, 1222, 1463, 1462
1217, 1222, 1223, 1464, 1463
1218, 1223, 1224, 1465, 1464
1219, 1224, 1225, 1466, 1465
1220, 1225, 1226, 1467, 1466
** ... 700 like lines cut
*ELEMENT, TYPE=CPE4, ELSET=DISP_LAYER05
1921, 1929, 1930, 2171, 2170
1922, 1930, 1931, 2172, 2171
1923, 1931, 1932, 2173, 2172
1924, 1932, 1933, 2174, 2173
1925, 1933, 1934, 2175, 2174
1926, 1934, 1935, 2176, 2175
1927, 1935, 1936, 2177, 2176
1928, 1936, 1937, 2178, 2177
1929, 1937, 1938, 2179, 2178
1930, 1938, 1939, 2180, 2179
1931, 1939, 1940, 2181, 2180
1932, 1940, 1941, 2182, 2181
1933, 1941, 1942, 2183, 2182
1934, 1942, 1943, 2184, 2183
1935, 1943, 1944, 2185, 2184
1936, 1944, 1945, 2186, 2185
1937, 1945, 1946, 2187, 2186
1938, 1946, 1947, 2188, 2187
1939, 1947, 1948, 2189, 2188
1940, 1948, 1949, 2190, 2189
** ... 220 like lines cut
*ELEMENT, TYPE=CPE4, ELSET=DISP_LAYER06
2161, 2170, 2171, 2412, 2411
2162, 2171, 2172, 2413, 2412
2163, 2172, 2173, 2414, 2413
2164, 2173, 2174, 2415, 2414
2165, 2174, 2175, 2416, 2415
2166, 2175, 2176, 2417, 2416
2167, 2176, 2177, 2418, 2417
2168, 2177, 2178, 2419, 2418
2169, 2178, 2179, 2420, 2419
2170, 2179, 2180, 2421, 2420
2171, 2180, 2181, 2422, 2421
2172, 2181, 2182, 2423, 2422
2173, 2182, 2183, 2424, 2423
2174, 2183, 2184, 2425, 2424
2175, 2184, 2185, 2426, 2425
2176, 2185, 2186, 2427, 2426
2177, 2186, 2187, 2428, 2427
2178, 2187, 2188, 2429, 2428
2179, 2188, 2189, 2430, 2429
2180, 2189, 2190, 2431, 2430
** ... 700 like lines cut
*ELEMENT, TYPE=CPE4, ELSET=PLATE_LEFT
10000, 10001, 10002, 10063, 10062
10001, 10002, 10003, 10064, 10063
10002, 10003, 10004, 10065, 10064
10003, 10004, 10005, 10066, 10065
10004, 10005, 10006, 10067, 10066
10005, 10006, 10007, 10068, 10067
10006, 10007, 10008, 10069, 10068
10007, 10008, 10009, 10070, 10069
10008, 10009, 10010, 10071, 10070
10009, 10010, 10011, 10072, 10071
10010, 10011, 10012, 10073, 10072
10011, 10012, 10013, 10074, 10073
10012, 10013, 10014, 10075, 10074
10013, 10014, 10015, 10076, 10075
10014, 10015, 10016, 10077, 10076
10015, 10016, 10017, 10078, 10077
10016, 10017, 10018, 10079, 10078
10017, 10018, 10019, 10080, 10079
10018, 10019, 10020, 10081, 10080
10019, 10020, 10021, 10082, 10081
** ... 100 like lines cut
*ELEMENT, TYPE=CPE4, ELSET=PLATE_RIGHT
10120, 10185, 10186, 10247, 10246
10121, 10186, 10187, 10248, 10247
10122, 10187, 10188, 10249, 10248
10123, 10188, 10189, 10250, 10249
10124, 10189, 10190, 10251, 10250
10125, 10190, 10191, 10252, 10251
10126, 10191, 10192, 10253, 10252
10127, 10192, 10193, 10254, 10253
10128, 10193, 10194, 10255, 10254
10129, 10194, 10195, 10256, 10255
10130, 10195, 10196, 10257, 10256
10131, 10196, 10197, 10258, 10257
10132, 10197, 10198, 10259, 10258
10133, 10198, 10199, 10260, 10259
10134, 10199, 10200, 10261, 10260
10135, 10200, 10201, 10262, 10261
10136, 10201, 10202, 10263, 10262
10137, 10202, 10203, 10264, 10263
10138, 10203, 10204, 10265, 10264
10139, 10204, 10205, 10266, 10265
** ... 100 like lines cut
**
*MATERIAL, NAME=PET
*ELASTIC
4000.0, 0.3
*PLASTIC
80.0, 0.0
480.0, 1.0
**
*MATERIAL, NAME=PSA
*HYPERELASTIC, ARRUDA-BOYCE
0.016779, 3.0, 2.4000096000384
*VISCOELASTIC, TIME=PRONY
0.2, 0.0, 3.33
*TRS, DEFINITION=WLF
25.0, 17.0, 51.6
**
*MATERIAL, NAME=STEEL
*ELASTIC
20000.0, 0.3
**
*SOLID SECTION, ELSET=DISP_LAYER01, MATERIAL=PSA
1.0,
*SOLID SECTION, ELSET=DISP_LAYER02, MATERIAL=PET
1.0,
*SOLID SECTION, ELSET=DISP_LAYER03, MATERIAL=PSA
1.0,
*SOLID SECTION, ELSET=DISP_LAYER04, MATERIAL=PET
1.0,
*SOLID SECTION, ELSET=DISP_LAYER05, MATERIAL=PSA
1.0,
*SOLID SECTION, ELSET=DISP_LAYER06, MATERIAL=PET
1.0,
*SOLID SECTION, ELSET=PLATE_LEFT, MATERIAL=STEEL
1.0,
*SOLID SECTION, ELSET=PLATE_RIGHT, MATERIAL=STEEL
1.0,
**
*NSET, NSET=DISP_BOT_L_NODES
1, 2, 3, 4, 5, 6, 7, 8, 9, 10, 11, 12, 13, 14, 15, 16, 17, 18, 19, 20, 21, 22, 23, 24, 25, 26, 27, 28, 29, 30, 31, 32, 33, 34, 35, 36, 37, 38, 39, 40, 41, 42, 43, 44, 45, 46, 47, 48, 49, 50, 51, 52, 53, 54, 55, 56, 57, 58, 59, 60, 61, 62, 63, 64, 65, 66, 67, 68, 69, 70, 71, 72, 73
*SURFACE, NAME=DISPLAY_BOT_L, TYPE=NODE
DISP_BOT_L_NODES,
*NSET, NSET=DISP_BOT_R_NODES
169, 170, 171, 172, 173, 174, 175, 176, 177, 178, 179, 180, 181, 182, 183, 184, 185, 186, 187, 188, 189, 190, 191, 192, 193, 194, 195, 196, 197, 198, 199, 200, 201, 202, 203, 204, 205, 206, 207, 208, 209, 210, 211, 212, 213, 214, 215, 216, 217, 218, 219, 220, 221, 222, 223, 224, 225, 226, 227, 228, 229, 230, 231, 232, 233, 234, 235, 236, 237, 238, 239, 240, 241
*SURFACE, NAME=DISPLAY_BOT_R, TYPE=NODE
DISP_BOT_R_NODES,
*NSET, NSET=PLATE_L_TOP_NODES
10123, 10124, 10125, 10126, 10127, 10128, 10129, 10130, 10131, 10132, 10133, 10134, 10135, 10136, 10137, 10138, 10139, 10140, 10141, 10142, 10143, 10144, 10145, 10146, 10147, 10148, 10149, 10150, 10151, 10152, 10153, 10154, 10155, 10156, 10157, 10158, 10159, 10160, 10161, 10162, 10163, 10164, 10165, 10166, 10167, 10168, 10169, 10170, 10171, 10172, 10173, 10174, 10175, 10176, 10177, 10178, 10179, 1
*SURFACE, NAME=PLATE_L_TOP, TYPE=NODE
PLATE_L_TOP_NODES,
*NSET, NSET=PLATE_R_TOP_NODES
10307, 10308, 10309, 10310, 10311, 10312, 10313, 10314, 10315, 10316, 10317, 10318, 10319, 10320, 10321, 10322, 10323, 10324, 10325, 10326, 10327, 10328, 10329, 10330, 10331, 10332, 10333, 10334, 10335, 10336, 10337, 10338, 10339, 10340, 10341, 10342, 10343, 10344, 10345, 10346, 10347, 10348, 10349, 10350, 10351, 10352, 10353, 10354, 10355, 10356, 10357, 10358, 10359, 10360, 10361, 10362, 10363, 1
*SURFACE, NAME=PLATE_R_TOP, TYPE=NODE
PLATE_R_TOP_NODES,
*NSET, NSET=PLATE_L_SLAVES
10001, 10002, 10003, 10004, 10005, 10006, 10007, 10008, 10009, 10010, 10011, 10012, 10013, 10014, 10015, 10016, 10017, 10018, 10019, 10020, 10021, 10022, 10023, 10024, 10025, 10026, 10027, 10028, 10029, 10030, 10031, 10032, 10033, 10034, 10035, 10036, 10037, 10038, 10039, 10040, 10041, 10042, 10043, 10044, 10045, 10046, 10047, 10048, 10049, 10050, 10051, 10052, 10053, 10054, 10055, 10056, 10057, 1
*NSET, NSET=PLATE_R_SLAVES
10185, 10186, 10187, 10188, 10189, 10190, 10191, 10192, 10193, 10194, 10195, 10196, 10197, 10198, 10199, 10200, 10201, 10202, 10203, 10204, 10205, 10206, 10207, 10208, 10209, 10210, 10211, 10212, 10213, 10214, 10215, 10216, 10217, 10218, 10219, 10220, 10221, 10222, 10223, 10224, 10225, 10226, 10227, 10228, 10229, 10230, 10231, 10232, 10233, 10234, 10235, 10236, 10237, 10238, 10239, 10240, 10241, 1
**
*RIGID BODY, NSET=PLATE_L_SLAVES, REF NODE=10000
*RIGID BODY, NSET=PLATE_R_SLAVES, REF NODE=10184
*TIE, NAME=TIE_LEFT
DISPLAY_BOT_L, PLATE_L_TOP
*TIE, NAME=TIE_RIGHT
DISPLAY_BOT_R, PLATE_R_TOP
**
*STEP
*STATIC
0.005, 1.0, 1e-05, 0.1
**
*BOUNDARY
10000, 1, 2, 0.0
10184, 1, 2, 0.0
**
*BOUNDARY
10000, 6, 6, -1.570796
10184, 6, 6, 1.570796
**
*END STEP