**
** ex12_rigid_plate_display_fold.inp
** 90-degree folding with rigid plate + surface tie (High-Fidelity Mesh)
**
*HEADING
Display folding with rigid plate and tie constraints
**
*NODE
1, -40.000000, 0.000000
2, -39.750000, 0.000000
3, -39.500000, 0.000000
4, -39.250000, 0.000000
5, -39.000000, 0.000000
6, -38.750000, 0.000000
7, -38.500000, 0.000000
8, -38.250000, 0.000000
9, -38.000000, 0.000000
10, -37.000000, 0.000000
11, -36.000000, 0.000000
12, -35.000000, 0.000000
13, -34.000000, 0.000000
14, -33.000000, 0.000000
15, -32.000000, 0.000000
16, -31.000000, 0.000000
17, -30.000000, 0.000000
18, -29.000000, 0.000000
19, -28.000000, 0.000000
20, -27.000000, 0.000000
** ... 1983 like lines cut
**
*ELEMENT, TYPE=CPE4, ELSET=DISP_L01
1, 1, 2, 123, 122
2, 2, 3, 124, 123
3, 3, 4, 125, 124
4, 4, 5, 126, 125
5, 5, 6, 127, 126
6, 6, 7, 128, 127
7, 7, 8, 129, 128
8, 8, 9, 130, 129
9, 9, 10, 131, 130
10, 10, 11, 132, 131
11, 11, 12, 133, 132
12, 12, 13, 134, 133
13, 13, 14, 135, 134
14, 14, 15, 136, 135
15, 15, 16, 137, 136
16, 16, 17, 138, 137
17, 17, 18, 139, 138
18, 18, 19, 140, 139
19, 19, 20, 141, 140
20, 20, 21, 142, 141
** ... 100 like lines cut
*ELEMENT, TYPE=CPE4, ELSET=DISP_L02
121, 122, 123, 244, 243
122, 123, 124, 245, 244
123, 124, 125, 246, 245
124, 125, 126, 247, 246
125, 126, 127, 248, 247
126, 127, 128, 249, 248
127, 128, 129, 250, 249
128, 129, 130, 251, 250
129, 130, 131, 252, 251
130, 131, 132, 253, 252
131, 132, 133, 254, 253
132, 133, 134, 255, 254
133, 134, 135, 256, 255
134, 135, 136, 257, 256
135, 136, 137, 258, 257
136, 137, 138, 259, 258
137, 138, 139, 260, 259
138, 139, 140, 261, 260
139, 140, 141, 262, 261
140, 141, 142, 263, 262
** ... 100 like lines cut
*ELEMENT, TYPE=CPE4, ELSET=DISP_L03
241, 243, 244, 365, 364
242, 244, 245, 366, 365
243, 245, 246, 367, 366
244, 246, 247, 368, 367
245, 247, 248, 369, 368
246, 248, 249, 370, 369
247, 249, 250, 371, 370
248, 250, 251, 372, 371
249, 251, 252, 373, 372
250, 252, 253, 374, 373
251, 253, 254, 375, 374
252, 254, 255, 376, 375
253, 255, 256, 377, 376
254, 256, 257, 378, 377
255, 257, 258, 379, 378
256, 258, 259, 380, 379
257, 259, 260, 381, 380
258, 260, 261, 382, 381
259, 261, 262, 383, 382
260, 262, 263, 384, 383
** ... 100 like lines cut
*ELEMENT, TYPE=CPE4, ELSET=DISP_L04
361, 364, 365, 486, 485
362, 365, 366, 487, 486
363, 366, 367, 488, 487
364, 367, 368, 489, 488
365, 368, 369, 490, 489
366, 369, 370, 491, 490
367, 370, 371, 492, 491
368, 371, 372, 493, 492
369, 372, 373, 494, 493
370, 373, 374, 495, 494
371, 374, 375, 496, 495
372, 375, 376, 497, 496
373, 376, 377, 498, 497
374, 377, 378, 499, 498
375, 378, 379, 500, 499
376, 379, 380, 501, 500
377, 380, 381, 502, 501
378, 381, 382, 503, 502
379, 382, 383, 504, 503
380, 383, 384, 505, 504
** ... 100 like lines cut
*ELEMENT, TYPE=CPE4, ELSET=DISP_L05
481, 485, 486, 607, 606
482, 486, 487, 608, 607
483, 487, 488, 609, 608
484, 488, 489, 610, 609
485, 489, 490, 611, 610
486, 490, 491, 612, 611
487, 491, 492, 613, 612
488, 492, 493, 614, 613
489, 493, 494, 615, 614
490, 494, 495, 616, 615
491, 495, 496, 617, 616
492, 496, 497, 618, 617
493, 497, 498, 619, 618
494, 498, 499, 620, 619
495, 499, 500, 621, 620
496, 500, 501, 622, 621
497, 501, 502, 623, 622
498, 502, 503, 624, 623
499, 503, 504, 625, 624
500, 504, 505, 626, 625
** ... 100 like lines cut
*ELEMENT, TYPE=CPE4, ELSET=DISP_L06
601, 606, 607, 728, 727
602, 607, 608, 729, 728
603, 608, 609, 730, 729
604, 609, 610, 731, 730
605, 610, 611, 732, 731
606, 611, 612, 733, 732
607, 612, 613, 734, 733
608, 613, 614, 735, 734
609, 614, 615, 736, 735
610, 615, 616, 737, 736
611, 616, 617, 738, 737
612, 617, 618, 739, 738
613, 618, 619, 740, 739
614, 619, 620, 741, 740
615, 620, 621, 742, 741
616, 621, 622, 743, 742
617, 622, 623, 744, 743
618, 623, 624, 745, 744
619, 624, 625, 746, 745
620, 625, 626, 747, 746
** ... 100 like lines cut
*ELEMENT, TYPE=CPE4, ELSET=DISP_L07
721, 727, 728, 849, 848
722, 728, 729, 850, 849
723, 729, 730, 851, 850
724, 730, 731, 852, 851
725, 731, 732, 853, 852
726, 732, 733, 854, 853
727, 733, 734, 855, 854
728, 734, 735, 856, 855
729, 735, 736, 857, 856
730, 736, 737, 858, 857
731, 737, 738, 859, 858
732, 738, 739, 860, 859
733, 739, 740, 861, 860
734, 740, 741, 862, 861
735, 741, 742, 863, 862
736, 742, 743, 864, 863
737, 743, 744, 865, 864
738, 744, 745, 866, 865
739, 745, 746, 867, 866
740, 746, 747, 868, 867
** ... 100 like lines cut
*ELEMENT, TYPE=CPE4, ELSET=DISP_L08
841, 848, 849, 970, 969
842, 849, 850, 971, 970
843, 850, 851, 972, 971
844, 851, 852, 973, 972
845, 852, 853, 974, 973
846, 853, 854, 975, 974
847, 854, 855, 976, 975
848, 855, 856, 977, 976
849, 856, 857, 978, 977
850, 857, 858, 979, 978
851, 858, 859, 980, 979
852, 859, 860, 981, 980
853, 860, 861, 982, 981
854, 861, 862, 983, 982
855, 862, 863, 984, 983
856, 863, 864, 985, 984
857, 864, 865, 986, 985
858, 865, 866, 987, 986
859, 866, 867, 988, 987
860, 867, 868, 989, 988
** ... 100 like lines cut
*ELEMENT, TYPE=CPE4, ELSET=DISP_L09
961, 969, 970, 1091, 1090
962, 970, 971, 1092, 1091
963, 971, 972, 1093, 1092
964, 972, 973, 1094, 1093
965, 973, 974, 1095, 1094
966, 974, 975, 1096, 1095
967, 975, 976, 1097, 1096
968, 976, 977, 1098, 1097
969, 977, 978, 1099, 1098
970, 978, 979, 1100, 1099
971, 979, 980, 1101, 1100
972, 980, 981, 1102, 1101
973, 981, 982, 1103, 1102
974, 982, 983, 1104, 1103
975, 983, 984, 1105, 1104
976, 984, 985, 1106, 1105
977, 985, 986, 1107, 1106
978, 986, 987, 1108, 1107
979, 987, 988, 1109, 1108
980, 988, 989, 1110, 1109
** ... 100 like lines cut
*ELEMENT, TYPE=CPE4, ELSET=DISP_L10
1081, 1090, 1091, 1212, 1211
1082, 1091, 1092, 1213, 1212
1083, 1092, 1093, 1214, 1213
1084, 1093, 1094, 1215, 1214
1085, 1094, 1095, 1216, 1215
1086, 1095, 1096, 1217, 1216
1087, 1096, 1097, 1218, 1217
1088, 1097, 1098, 1219, 1218
1089, 1098, 1099, 1220, 1219
1090, 1099, 1100, 1221, 1220
1091, 1100, 1101, 1222, 1221
1092, 1101, 1102, 1223, 1222
1093, 1102, 1103, 1224, 1223
1094, 1103, 1104, 1225, 1224
1095, 1104, 1105, 1226, 1225
1096, 1105, 1106, 1227, 1226
1097, 1106, 1107, 1228, 1227
1098, 1107, 1108, 1229, 1228
1099, 1108, 1109, 1230, 1229
1100, 1109, 1110, 1231, 1230
** ... 100 like lines cut
*ELEMENT, TYPE=CPE4, ELSET=DISP_L11
1201, 1211, 1212, 1333, 1332
1202, 1212, 1213, 1334, 1333
1203, 1213, 1214, 1335, 1334
1204, 1214, 1215, 1336, 1335
1205, 1215, 1216, 1337, 1336
1206, 1216, 1217, 1338, 1337
1207, 1217, 1218, 1339, 1338
1208, 1218, 1219, 1340, 1339
1209, 1219, 1220, 1341, 1340
1210, 1220, 1221, 1342, 1341
1211, 1221, 1222, 1343, 1342
1212, 1222, 1223, 1344, 1343
1213, 1223, 1224, 1345, 1344
1214, 1224, 1225, 1346, 1345
1215, 1225, 1226, 1347, 1346
1216, 1226, 1227, 1348, 1347
1217, 1227, 1228, 1349, 1348
1218, 1228, 1229, 1350, 1349
1219, 1229, 1230, 1351, 1350
1220, 1230, 1231, 1352, 1351
** ... 100 like lines cut
*ELEMENT, TYPE=CPE4, ELSET=DISP_L12
1321, 1332, 1333, 1454, 1453
1322, 1333, 1334, 1455, 1454
1323, 1334, 1335, 1456, 1455
1324, 1335, 1336, 1457, 1456
1325, 1336, 1337, 1458, 1457
1326, 1337, 1338, 1459, 1458
1327, 1338, 1339, 1460, 1459
1328, 1339, 1340, 1461, 1460
1329, 1340, 1341, 1462, 1461
1330, 1341, 1342, 1463, 1462
1331, 1342, 1343, 1464, 1463
1332, 1343, 1344, 1465, 1464
1333, 1344, 1345, 1466, 1465
1334, 1345, 1346, 1467, 1466
1335, 1346, 1347, 1468, 1467
1336, 1347, 1348, 1469, 1468
1337, 1348, 1349, 1470, 1469
1338, 1349, 1350, 1471, 1470
1339, 1350, 1351, 1472, 1471
1340, 1351, 1352, 1473, 1472
** ... 100 like lines cut
*ELEMENT, TYPE=CPE4, ELSET=DISP_L13
1441, 1453, 1454, 1575, 1574
1442, 1454, 1455, 1576, 1575
1443, 1455, 1456, 1577, 1576
1444, 1456, 1457, 1578, 1577
1445, 1457, 1458, 1579, 1578
1446, 1458, 1459, 1580, 1579
1447, 1459, 1460, 1581, 1580
1448, 1460, 1461, 1582, 1581
1449, 1461, 1462, 1583, 1582
1450, 1462, 1463, 1584, 1583
1451, 1463, 1464, 1585, 1584
1452, 1464, 1465, 1586, 1585
1453, 1465, 1466, 1587, 1586
1454, 1466, 1467, 1588, 1587
1455, 1467, 1468, 1589, 1588
1456, 1468, 1469, 1590, 1589
1457, 1469, 1470, 1591, 1590
1458, 1470, 1471, 1592, 1591
1459, 1471, 1472, 1593, 1592
1460, 1472, 1473, 1594, 1593
** ... 100 like lines cut
*ELEMENT, TYPE=CPE4, ELSET=DISP_L14
1561, 1574, 1575, 1696, 1695
1562, 1575, 1576, 1697, 1696
1563, 1576, 1577, 1698, 1697
1564, 1577, 1578, 1699, 1698
1565, 1578, 1579, 1700, 1699
1566, 1579, 1580, 1701, 1700
1567, 1580, 1581, 1702, 1701
1568, 1581, 1582, 1703, 1702
1569, 1582, 1583, 1704, 1703
1570, 1583, 1584, 1705, 1704
1571, 1584, 1585, 1706, 1705
1572, 1585, 1586, 1707, 1706
1573, 1586, 1587, 1708, 1707
1574, 1587, 1588, 1709, 1708
1575, 1588, 1589, 1710, 1709
1576, 1589, 1590, 1711, 1710
1577, 1590, 1591, 1712, 1711
1578, 1591, 1592, 1713, 1712
1579, 1592, 1593, 1714, 1713
1580, 1593, 1594, 1715, 1714
** ... 100 like lines cut
*ELEMENT, TYPE=CPE4, ELSET=PLATE_LEFT
10000, 10001, 10002, 10033, 10032
10001, 10002, 10003, 10034, 10033
10002, 10003, 10004, 10035, 10034
10003, 10004, 10005, 10036, 10035
10004, 10005, 10006, 10037, 10036
10005, 10006, 10007, 10038, 10037
10006, 10007, 10008, 10039, 10038
10007, 10008, 10009, 10040, 10039
10008, 10009, 10010, 10041, 10040
10009, 10010, 10011, 10042, 10041
10010, 10011, 10012, 10043, 10042
10011, 10012, 10013, 10044, 10043
10012, 10013, 10014, 10045, 10044
10013, 10014, 10015, 10046, 10045
10014, 10015, 10016, 10047, 10046
10015, 10016, 10017, 10048, 10047
10016, 10017, 10018, 10049, 10048
10017, 10018, 10019, 10050, 10049
10018, 10019, 10020, 10051, 10050
10019, 10020, 10021, 10052, 10051
** ... 40 like lines cut
*ELEMENT, TYPE=CPE4, ELSET=PLATE_RIGHT
10060, 10095, 10096, 10127, 10126
10061, 10096, 10097, 10128, 10127
10062, 10097, 10098, 10129, 10128
10063, 10098, 10099, 10130, 10129
10064, 10099, 10100, 10131, 10130
10065, 10100, 10101, 10132, 10131
10066, 10101, 10102, 10133, 10132
10067, 10102, 10103, 10134, 10133
10068, 10103, 10104, 10135, 10134
10069, 10104, 10105, 10136, 10135
10070, 10105, 10106, 10137, 10136
10071, 10106, 10107, 10138, 10137
10072, 10107, 10108, 10139, 10138
10073, 10108, 10109, 10140, 10139
10074, 10109, 10110, 10141, 10140
10075, 10110, 10111, 10142, 10141
10076, 10111, 10112, 10143, 10142
10077, 10112, 10113, 10144, 10143
10078, 10113, 10114, 10145, 10144
10079, 10114, 10115, 10146, 10145
** ... 40 like lines cut
**
*MATERIAL, NAME=SUBSTRATE
*ELASTIC
4000.0, 0.3
*PLASTIC
80.0, 0.0
480.0, 1.0
**
*MATERIAL, NAME=ADHESIVE
*ELASTIC
50.0, 0.45
*VISCOELASTIC, TIME=PRONY
0.6, 0.0, 0.1
0.3, 0.0, 1.0
*TRS, DEFINITION=WLF
25.0, 17.0, 51.6
**
*MATERIAL, NAME=STEEL
*ELASTIC
20000.0, 0.3
**
*SOLID SECTION, ELSET=DISP_L01, MATERIAL=SUBSTRATE
1.0,
*SOLID SECTION, ELSET=DISP_L02, MATERIAL=ADHESIVE
1.0,
*SOLID SECTION, ELSET=DISP_L03, MATERIAL=SUBSTRATE
1.0,
*SOLID SECTION, ELSET=DISP_L04, MATERIAL=ADHESIVE
1.0,
*SOLID SECTION, ELSET=DISP_L05, MATERIAL=SUBSTRATE
1.0,
*SOLID SECTION, ELSET=DISP_L06, MATERIAL=ADHESIVE
1.0,
*SOLID SECTION, ELSET=DISP_L07, MATERIAL=SUBSTRATE
1.0,
*SOLID SECTION, ELSET=DISP_L08, MATERIAL=ADHESIVE
1.0,
*SOLID SECTION, ELSET=DISP_L09, MATERIAL=SUBSTRATE
1.0,
*SOLID SECTION, ELSET=DISP_L10, MATERIAL=ADHESIVE
1.0,
*SOLID SECTION, ELSET=DISP_L11, MATERIAL=SUBSTRATE
1.0,
*SOLID SECTION, ELSET=DISP_L12, MATERIAL=ADHESIVE
1.0,
*SOLID SECTION, ELSET=DISP_L13, MATERIAL=SUBSTRATE
1.0,
*SOLID SECTION, ELSET=DISP_L14, MATERIAL=ADHESIVE
1.0,
*SOLID SECTION, ELSET=PLATE_LEFT, MATERIAL=STEEL
1.0,
*SOLID SECTION, ELSET=PLATE_RIGHT, MATERIAL=STEEL
1.0,
**
*NSET, NSET=DISP_BOT_L_NODES
1, 2, 3, 4, 5, 6, 7, 8, 9, 10, 11, 12, 13, 14, 15, 16, 17, 18, 19, 20, 21, 22, 23, 24, 25, 26, 27, 28, 29, 30, 31, 32, 33, 34, 35, 36, 37
*SURFACE, NAME=DISPLAY_BOT_L, TYPE=NODE
DISP_BOT_L_NODES,
*NSET, NSET=DISP_BOT_R_NODES
85, 86, 87, 88, 89, 90, 91, 92, 93, 94, 95, 96, 97, 98, 99, 100, 101, 102, 103, 104, 105, 106, 107, 108, 109, 110, 111, 112, 113, 114, 115, 116, 117, 118, 119, 120, 121
*SURFACE, NAME=DISPLAY_BOT_R, TYPE=NODE
DISP_BOT_R_NODES,
*NSET, NSET=PLATE_L_TOP_NODES
10063, 10064, 10065, 10066, 10067, 10068, 10069, 10070, 10071, 10072, 10073, 10074, 10075, 10076, 10077, 10078, 10079, 10080, 10081, 10082, 10083, 10084, 10085, 10086, 10087, 10088, 10089, 10090, 10091, 10092, 10093
*SURFACE, NAME=PLATE_L_TOP, TYPE=NODE
PLATE_L_TOP_NODES,
*NSET, NSET=PLATE_R_TOP_NODES
10157, 10158, 10159, 10160, 10161, 10162, 10163, 10164, 10165, 10166, 10167, 10168, 10169, 10170, 10171, 10172, 10173, 10174, 10175, 10176, 10177, 10178, 10179, 10180, 10181, 10182, 10183, 10184, 10185, 10186, 10187
*SURFACE, NAME=PLATE_R_TOP, TYPE=NODE
PLATE_R_TOP_NODES,
*NSET, NSET=PLATE_L_SLAVES
10001, 10002, 10003, 10004, 10005, 10006, 10007, 10008, 10009, 10010, 10011, 10012, 10013, 10014, 10015, 10016, 10017, 10018, 10019, 10020, 10021, 10022, 10023, 10024, 10025, 10026, 10027, 10028, 10029, 10030, 10031, 10032, 10033, 10034, 10035, 10036, 10037, 10038, 10039, 10040, 10041, 10042, 10043, 10044, 10045, 10046, 10047, 10048, 10049, 10050, 10051, 10052, 10053, 10054, 10055, 10056, 10057, 1
*NSET, NSET=PLATE_R_SLAVES
10095, 10096, 10097, 10098, 10099, 10100, 10101, 10102, 10103, 10104, 10105, 10106, 10107, 10108, 10109, 10110, 10111, 10112, 10113, 10114, 10115, 10116, 10117, 10118, 10119, 10120, 10121, 10122, 10123, 10124, 10125, 10126, 10127, 10128, 10129, 10130, 10131, 10132, 10133, 10134, 10135, 10136, 10137, 10138, 10139, 10140, 10141, 10142, 10143, 10144, 10145, 10146, 10147, 10148, 10149, 10150, 10151, 1
**
*RIGID BODY, NSET=PLATE_L_SLAVES, REF NODE=10000
*RIGID BODY, NSET=PLATE_R_SLAVES, REF NODE=10094
*TIE, NAME=TIE_LEFT
DISPLAY_BOT_L, PLATE_L_TOP
*TIE, NAME=TIE_RIGHT
DISPLAY_BOT_R, PLATE_R_TOP
**
*STEP
*STATIC
0.005, 1.0, 1e-5, 0.01
**
*BOUNDARY
10000, 1, 2, 0.0
10094, 1, 2, 0.0
**
*BOUNDARY
10000, 6, 6, -1.570796
10094, 6, 6, 1.570796
**
*END STEP