**
** ex12_rigid_plate_display_fold.inp
** 90-degree folding with rigid plate + surface tie (High-Fidelity Mesh)
**
*HEADING
Display folding with rigid plate and tie constraints
**
*NODE
1, -40.000000, 0.000000
2, -39.750000, 0.000000
3, -39.500000, 0.000000
4, -39.250000, 0.000000
5, -39.000000, 0.000000
6, -38.750000, 0.000000
7, -38.500000, 0.000000
8, -38.250000, 0.000000
9, -38.000000, 0.000000
10, -37.500000, 0.000000
11, -37.000000, 0.000000
12, -36.500000, 0.000000
13, -36.000000, 0.000000
14, -35.500000, 0.000000
15, -35.000000, 0.000000
16, -34.500000, 0.000000
17, -34.000000, 0.000000
18, -33.500000, 0.000000
19, -33.000000, 0.000000
20, -32.500000, 0.000000
** ... 927 like lines cut
**
*ELEMENT, TYPE=CPE4, ELSET=DISP_LAYER01
1, 1, 2, 195, 194
2, 2, 3, 196, 195
3, 3, 4, 197, 196
4, 4, 5, 198, 197
5, 5, 6, 199, 198
6, 6, 7, 200, 199
7, 7, 8, 201, 200
8, 8, 9, 202, 201
9, 9, 10, 203, 202
10, 10, 11, 204, 203
11, 11, 12, 205, 204
12, 12, 13, 206, 205
13, 13, 14, 207, 206
14, 14, 15, 208, 207
15, 15, 16, 209, 208
16, 16, 17, 210, 209
17, 17, 18, 211, 210
18, 18, 19, 212, 211
19, 19, 20, 213, 212
20, 20, 21, 214, 213
** ... 364 like lines cut
*ELEMENT, TYPE=CPE4, ELSET=PLATE_LEFT
10000, 10001, 10002, 10063, 10062
10001, 10002, 10003, 10064, 10063
10002, 10003, 10004, 10065, 10064
10003, 10004, 10005, 10066, 10065
10004, 10005, 10006, 10067, 10066
10005, 10006, 10007, 10068, 10067
10006, 10007, 10008, 10069, 10068
10007, 10008, 10009, 10070, 10069
10008, 10009, 10010, 10071, 10070
10009, 10010, 10011, 10072, 10071
10010, 10011, 10012, 10073, 10072
10011, 10012, 10013, 10074, 10073
10012, 10013, 10014, 10075, 10074
10013, 10014, 10015, 10076, 10075
10014, 10015, 10016, 10077, 10076
10015, 10016, 10017, 10078, 10077
10016, 10017, 10018, 10079, 10078
10017, 10018, 10019, 10080, 10079
10018, 10019, 10020, 10081, 10080
10019, 10020, 10021, 10082, 10081
** ... 100 like lines cut
*ELEMENT, TYPE=CPE4, ELSET=PLATE_RIGHT
10120, 10185, 10186, 10247, 10246
10121, 10186, 10187, 10248, 10247
10122, 10187, 10188, 10249, 10248
10123, 10188, 10189, 10250, 10249
10124, 10189, 10190, 10251, 10250
10125, 10190, 10191, 10252, 10251
10126, 10191, 10192, 10253, 10252
10127, 10192, 10193, 10254, 10253
10128, 10193, 10194, 10255, 10254
10129, 10194, 10195, 10256, 10255
10130, 10195, 10196, 10257, 10256
10131, 10196, 10197, 10258, 10257
10132, 10197, 10198, 10259, 10258
10133, 10198, 10199, 10260, 10259
10134, 10199, 10200, 10261, 10260
10135, 10200, 10201, 10262, 10261
10136, 10201, 10202, 10263, 10262
10137, 10202, 10203, 10264, 10263
10138, 10203, 10204, 10265, 10264
10139, 10204, 10205, 10266, 10265
** ... 100 like lines cut
**
*MATERIAL, NAME=PET
*ELASTIC
4000.0, 0.3
*PLASTIC
80.0, 0.0
480.0, 1.0
**
*MATERIAL, NAME=PSA
*HYPERELASTIC, ARRUDA-BOYCE
0.016779, 3.0, 2.4000096000384
*VISCOELASTIC, TIME=PRONY
0.12, 0.0, 0.7
0.08, 0.0, 7.0
*TRS, DEFINITION=WLF
25.0, 17.0, 51.6
**
*MATERIAL, NAME=STEEL
*ELASTIC
20000.0, 0.3
**
*MATERIAL, NAME=GLASS
*ELASTIC
72300.0, 0.22
*PLASTIC
1000000000.0, 0.0
1000000000.0, 1.0
**
*SOLID SECTION, ELSET=DISP_LAYER01, MATERIAL=GLASS
1.0,
*SOLID SECTION, ELSET=PLATE_LEFT, MATERIAL=STEEL
1.0,
*SOLID SECTION, ELSET=PLATE_RIGHT, MATERIAL=STEEL
1.0,
**
*NSET, NSET=DISP_BOT_L_NODES
1, 2, 3, 4, 5, 6, 7, 8, 9, 10, 11, 12, 13, 14, 15, 16, 17, 18, 19, 20, 21, 22, 23, 24, 25, 26, 27, 28, 29, 30, 31, 32, 33, 34, 35, 36, 37, 38, 39, 40, 41, 42, 43, 44, 45, 46, 47, 48, 49, 50, 51, 52, 53, 54, 55, 56, 57, 58, 59, 60, 61, 62, 63, 64, 65, 66, 67, 68, 69, 70, 71, 72, 73
*SURFACE, NAME=DISPLAY_BOT_L, TYPE=NODE
DISP_BOT_L_NODES,
*NSET, NSET=DISP_BOT_R_NODES
121, 122, 123, 124, 125, 126, 127, 128, 129, 130, 131, 132, 133, 134, 135, 136, 137, 138, 139, 140, 141, 142, 143, 144, 145, 146, 147, 148, 149, 150, 151, 152, 153, 154, 155, 156, 157, 158, 159, 160, 161, 162, 163, 164, 165, 166, 167, 168, 169, 170, 171, 172, 173, 174, 175, 176, 177, 178, 179, 180, 181, 182, 183, 184, 185, 186, 187, 188, 189, 190, 191, 192, 193
*SURFACE, NAME=DISPLAY_BOT_R, TYPE=NODE
DISP_BOT_R_NODES,
*NSET, NSET=PLATE_L_TOP_NODES
10123, 10124, 10125, 10126, 10127, 10128, 10129, 10130, 10131, 10132, 10133, 10134, 10135, 10136, 10137, 10138, 10139, 10140, 10141, 10142, 10143, 10144, 10145, 10146, 10147, 10148, 10149, 10150, 10151, 10152, 10153, 10154, 10155, 10156, 10157, 10158, 10159, 10160, 10161, 10162, 10163, 10164, 10165, 10166, 10167, 10168, 10169, 10170, 10171, 10172, 10173, 10174, 10175, 10176, 10177, 10178, 10179, 1
*SURFACE, NAME=PLATE_L_TOP, TYPE=NODE
PLATE_L_TOP_NODES,
*NSET, NSET=PLATE_R_TOP_NODES
10307, 10308, 10309, 10310, 10311, 10312, 10313, 10314, 10315, 10316, 10317, 10318, 10319, 10320, 10321, 10322, 10323, 10324, 10325, 10326, 10327, 10328, 10329, 10330, 10331, 10332, 10333, 10334, 10335, 10336, 10337, 10338, 10339, 10340, 10341, 10342, 10343, 10344, 10345, 10346, 10347, 10348, 10349, 10350, 10351, 10352, 10353, 10354, 10355, 10356, 10357, 10358, 10359, 10360, 10361, 10362, 10363, 1
*SURFACE, NAME=PLATE_R_TOP, TYPE=NODE
PLATE_R_TOP_NODES,
*NSET, NSET=PLATE_L_SLAVES
10001, 10002, 10003, 10004, 10005, 10006, 10007, 10008, 10009, 10010, 10011, 10012, 10013, 10014, 10015, 10016, 10017, 10018, 10019, 10020, 10021, 10022, 10023, 10024, 10025, 10026, 10027, 10028, 10029, 10030, 10031, 10032, 10033, 10034, 10035, 10036, 10037, 10038, 10039, 10040, 10041, 10042, 10043, 10044, 10045, 10046, 10047, 10048, 10049, 10050, 10051, 10052, 10053, 10054, 10055, 10056, 10057, 1
*NSET, NSET=PLATE_R_SLAVES
10185, 10186, 10187, 10188, 10189, 10190, 10191, 10192, 10193, 10194, 10195, 10196, 10197, 10198, 10199, 10200, 10201, 10202, 10203, 10204, 10205, 10206, 10207, 10208, 10209, 10210, 10211, 10212, 10213, 10214, 10215, 10216, 10217, 10218, 10219, 10220, 10221, 10222, 10223, 10224, 10225, 10226, 10227, 10228, 10229, 10230, 10231, 10232, 10233, 10234, 10235, 10236, 10237, 10238, 10239, 10240, 10241, 1
**
*RIGID BODY, NSET=PLATE_L_SLAVES, REF NODE=10000
*RIGID BODY, NSET=PLATE_R_SLAVES, REF NODE=10184
*TIE, NAME=TIE_LEFT
DISPLAY_BOT_L, PLATE_L_TOP
*TIE, NAME=TIE_RIGHT
DISPLAY_BOT_R, PLATE_R_TOP
**
*STEP
*STATIC
0.005, 1.0, 1e-05, 0.1
**
*BOUNDARY
10000, 1, 2, 0.0
10184, 1, 2, 0.0
**
*BOUNDARY
10000, 6, 6, -1.570796
10184, 6, 6, 1.570796
**
*END STEP